153-98-0
  Mrv1561503291623562D          

 15 14  0  0  0  0            999 V2000
    0.4125    0.0000    0.0000 H   0  3  0  0  0  0  0  0  0  0  0  0
    3.6016    0.4853    0.0000 C   0  0  0  0  0  0  0  0  0  0  0  0
    4.0865   -0.1821    0.0000 C   0  0  0  0  0  0  0  0  0  0  0  0
    4.8711    0.0728    0.0000 C   0  0  0  0  0  0  0  0  0  0  0  0
    4.8711    0.8978    0.0000 C   0  0  0  0  0  0  0  0  0  0  0  0
    4.0865    1.1527    0.0000 N   0  0  0  0  0  0  0  0  0  0  0  0
    5.5856    1.3103    0.0000 C   0  0  0  0  0  0  0  0  0  0  0  0
    6.3001    0.8978    0.0000 C   0  0  0  0  0  0  0  0  0  0  0  0
    6.3001    0.0728    0.0000 C   0  0  0  0  0  0  0  0  0  0  0  0
    5.5856   -0.3397    0.0000 C   0  0  0  0  0  0  0  0  0  0  0  0
    7.0145   -0.3397    0.0000 O   0  0  0  0  0  0  0  0  0  0  0  0
    3.8316   -0.9668    0.0000 C   0  0  0  0  0  0  0  0  0  0  0  0
    3.0246   -1.1383    0.0000 C   0  0  0  0  0  0  0  0  0  0  0  0
    2.7696   -1.9229    0.0000 N   0  0  0  0  0  0  0  0  0  0  0  0
   -0.4125    0.0000    0.0000 Cl  0  5  0  0  0  0  0  0  0  0  0  0
  2  3  2  0  0  0  0
  3  4  1  0  0  0  0
  4  5  2  0  0  0  0
  5  6  1  0  0  0  0
  2  6  1  0  0  0  0
  5  7  1  0  0  0  0
  7  8  2  0  0  0  0
  8  9  1  0  0  0  0
  9 10  2  0  0  0  0
  4 10  1  0  0  0  0
  9 11  1  0  0  0  0
  3 12  1  0  0  0  0
 12 13  1  0  0  0  0
 13 14  1  0  0  0  0
M  CHG  2   1   1  15  -1
M  END
>  <Name>
Serotonin HCl

>  <CAS>
153-98-0

>  <Formula>
C10H12N2O·HCl

>  <MolWt>
212.68 

>  <Bioactivity>
Serotonin HCl is a monoamine neurotransmitter and Endogenous 5-HT receptor agonist.

>  <Pathways>
Neuroscience

>  <Target>
5-HT Receptor antagonist

>  <Receptor>
5-HT Receptor

>  <Reference>
1. Lamichhane K, et al. Ecotoxicol Environ Saf. 2014 Mar;101:124-30. 

$$$$
15421-84-8
  Mrv1561503291623562D          

 15 16  0  0  0  0            999 V2000
    0.6538   -0.6979    0.0000 C   0  0  0  0  0  0  0  0  0  0  0  0
    1.1387   -0.0305    0.0000 N   0  0  0  0  0  0  0  0  0  0  0  0
    1.9233   -0.2854    0.0000 N   0  0  0  0  0  0  0  0  0  0  0  0
    2.6378    0.1271    0.0000 C   0  0  0  0  0  0  0  0  0  0  0  0
    3.3523   -0.2854    0.0000 C   0  0  0  0  0  0  0  0  0  0  0  0
    3.3523   -1.1104    0.0000 C   0  0  0  0  0  0  0  0  0  0  0  0
    2.6378   -1.5229    0.0000 N   0  0  0  0  0  0  0  0  0  0  0  0
    1.9233   -1.1104    0.0000 C   0  0  0  0  0  0  0  0  0  0  0  0
    1.1387   -1.3654    0.0000 N   0  0  0  0  0  0  0  0  0  0  0  0
    4.0668   -1.5229    0.0000 C   0  0  0  0  0  0  0  0  0  0  0  0
    2.6378    0.9521    0.0000 N   0  0  0  0  0  0  0  0  0  0  0  0
    3.3523    1.3646    0.0000 C   0  0  0  0  0  0  0  0  0  0  0  0
    3.3523    2.1896    0.0000 C   0  0  0  0  0  0  0  0  0  0  0  0
    1.9233    1.3646    0.0000 C   0  0  0  0  0  0  0  0  0  0  0  0
    1.9233    2.1896    0.0000 C   0  0  0  0  0  0  0  0  0  0  0  0
  1  2  2  0  0  0  0
  2  3  1  0  0  0  0
  3  4  1  0  0  0  0
  4  5  2  0  0  0  0
  5  6  1  0  0  0  0
  6  7  2  0  0  0  0
  7  8  1  0  0  0  0
  3  8  1  0  0  0  0
  8  9  2  0  0  0  0
  1  9  1  0  0  0  0
  6 10  1  0  0  0  0
  4 11  1  0  0  0  0
 11 12  1  0  0  0  0
 12 13  1  0  0  0  0
 11 14  1  0  0  0  0
 14 15  1  0  0  0  0
M  END
>  <Name>
Trapidil

>  <CAS>
15421-84-8

>  <Formula>
C10H15N5

>  <MolWt>
205.26 

>  <Bioactivity>
A coronary vasodilator agent.

>  <Pathways>
Metabolism

>  <Target>
PDE inhibitor

>  <Receptor>
PDE; PDGF

>  <Reference>
1. Kim SD, et al. Biochem Pharmacol. 2013 Sep 15;86(6):782-90.

$$$$
T1531
  Mrv1561503291623562D          

 35 39  0  0  1  0            999 V2000
    4.7875    0.9666    0.0000 C   0  0  1  0  0  0  0  0  0  0  0  0
    3.9629    0.9934    0.0000 C   0  0  2  0  0  0  0  0  0  0  0  0
    3.6826    0.2174    0.0000 C   0  0  2  0  0  0  0  0  0  0  0  0
    2.8705    0.0722    0.0000 C   0  0  1  0  0  0  0  0  0  0  0  0
    2.3387    0.7029    0.0000 C   0  0  2  0  0  0  0  0  0  0  0  0
    1.5266    0.5577    0.0000 C   0  0  2  0  0  0  0  0  0  0  0  0
    1.2463   -0.2182    0.0000 C   0  0  0  0  0  0  0  0  0  0  0  0
    0.4342   -0.3634    0.0000 C   0  0  0  0  0  0  0  0  0  0  0  0
   -0.0976    0.2673    0.0000 C   0  0  0  0  0  0  0  0  0  0  0  0
   -0.9098    0.1221    0.0000 O   0  0  0  0  0  0  0  0  0  0  0  0
    0.1827    1.0432    0.0000 C   0  0  0  0  0  0  0  0  0  0  0  0
    0.9948    1.1884    0.0000 C   0  0  0  0  0  0  0  0  0  0  0  0
    1.7781   -0.8489    0.0000 C   0  0  0  0  0  0  0  0  0  0  0  0
    2.5902   -0.7037    0.0000 C   0  0  0  0  0  0  0  0  0  0  0  0
    1.8069    1.3336    0.0000 C   0  0  0  0  0  0  0  0  0  0  0  0
    2.2792    1.5258    0.0000 Cl  0  0  0  0  0  0  0  0  0  0  0  0
    2.6190    1.4789    0.0000 C   0  0  2  0  0  0  0  0  0  0  0  0
    3.4311    1.6241    0.0000 C   0  0  0  0  0  0  0  0  0  0  0  0
    2.0872    2.1096    0.0000 O   0  0  0  0  0  0  0  0  0  0  0  0
    4.3340   -0.2889    0.0000 C   0  0  0  0  0  0  0  0  0  0  0  0
    5.0168    0.1741    0.0000 C   0  0  1  0  0  0  0  0  0  0  0  0
    5.7927   -0.1062    0.0000 C   0  0  0  0  0  0  0  0  0  0  0  0
    4.3228    1.7357    0.0000 C   0  0  0  0  0  0  0  0  0  0  0  0
    5.5484    1.2854    0.0000 O   0  0  0  0  0  0  0  0  0  0  0  0
    6.2050    0.7859    0.0000 C   0  0  0  0  0  0  0  0  0  0  0  0
    6.9659    1.1048    0.0000 C   0  0  0  0  0  0  0  0  0  0  0  0
    7.1551    1.9078    0.0000 C   0  0  0  0  0  0  0  0  0  0  0  0
    7.9773    1.9759    0.0000 C   0  0  0  0  0  0  0  0  0  0  0  0
    8.2962    1.2151    0.0000 C   0  0  0  0  0  0  0  0  0  0  0  0
    7.6711    0.6767    0.0000 O   0  0  0  0  0  0  0  0  0  0  0  0
    6.1007   -0.0325    0.0000 O   0  0  0  0  0  0  0  0  0  0  0  0
    4.9089    1.7826    0.0000 C   0  0  0  0  0  0  0  0  0  0  0  0
    5.6763    2.0854    0.0000 C   0  0  0  0  0  0  0  0  0  0  0  0
    5.7977    2.9015    0.0000 Cl  0  0  0  0  0  0  0  0  0  0  0  0
    4.2629    2.2957    0.0000 O   0  0  0  0  0  0  0  0  0  0  0  0
  1  2  1  0  0  0  0
  2  3  1  0  0  0  0
  3  4  1  0  0  0  0
  4  5  1  0  0  0  0
  5  6  1  0  0  0  0
  6  7  1  0  0  0  0
  7  8  2  0  0  0  0
  8  9  1  0  0  0  0
  9 10  2  0  0  0  0
  9 11  1  0  0  0  0
 11 12  2  0  0  0  0
  6 12  1  0  0  0  0
  7 13  1  0  0  0  0
 13 14  1  0  0  0  0
  4 14  1  6  0  0  0
  6 15  1  1  0  0  0
  5 16  1  6  0  0  0
  5 17  1  0  0  0  0
 17 18  1  0  0  0  0
  2 18  1  0  0  0  0
 17 19  1  1  0  0  0
  3 20  1  1  0  0  0
 20 21  1  0  0  0  0
  1 21  1  0  0  0  0
 21 22  1  6  0  0  0
  2 23  1  1  0  0  0
  1 24  1  6  0  0  0
 24 25  1  0  0  0  0
 25 26  1  0  0  0  0
 26 27  2  0  0  0  0
 27 28  1  0  0  0  0
 28 29  2  0  0  0  0
 29 30  1  0  0  0  0
 26 30  1  0  0  0  0
 25 31  2  0  0  0  0
  1 32  1  1  0  0  0
 32 33  1  0  0  0  0
 33 34  1  0  0  0  0
 32 35  2  0  0  0  0
M  END
>  <Name>
Mometasone furoate

>  <CAS>
83919-23-7

>  <Formula>
C27H30Cl2O6

>  <MolWt>
521.43 

>  <Bioactivity>
Mometasone furoate is a glucocorticosteroid used topically to reduce inflammation of the skin or in the airways. Mometasone furoate is used in the treatment of inflammatory skin disorders (such as eczema and psoriasis), allergic rhinitis (such as hay fever), asthma for patients unresponsive to less potent corticosteroids, and penile phimosis. In terms of steroid strength, it is more potent than hydrocortisone, and less potent than dexamethasone.

>  <Pathways>
Endocrinology/ Hormones

>  <Target>
Glucocorticoid Receptor inhibitor

>  <Receptor>
Glucocorticoid Receptor

>  <Reference>
1. Isogai M, et al. J Steroid Biochem Mol Biol. 1993 Feb;44(2):141-5.

$$$$
68844-77-9
  Mrv1561503291623562D          

 34 38  0  0  0  0            999 V2000
    0.7145   -0.4125    0.0000 C   0  0  0  0  0  0  0  0  0  0  0  0
    0.0000    0.0000    0.0000 C   0  0  0  0  0  0  0  0  0  0  0  0
   -0.7846   -0.2549    0.0000 N   0  0  0  0  0  0  0  0  0  0  0  0
   -1.2695    0.4125    0.0000 C   0  0  0  0  0  0  0  0  0  0  0  0
   -0.7846    1.0799    0.0000 N   0  0  0  0  0  0  0  0  0  0  0  0
   -0.0000    0.8250    0.0000 C   0  0  0  0  0  0  0  0  0  0  0  0
    0.7145    1.2375    0.0000 C   0  0  0  0  0  0  0  0  0  0  0  0
    1.4289    0.8250    0.0000 C   0  0  0  0  0  0  0  0  0  0  0  0
    1.4289   -0.0000    0.0000 C   0  0  0  0  0  0  0  0  0  0  0  0
   -2.0945    0.4125    0.0000 N   0  0  0  0  0  0  0  0  0  0  0  0
   -2.5070    1.1270    0.0000 C   0  0  0  0  0  0  0  0  0  0  0  0
   -3.3320    1.1270    0.0000 C   0  0  0  0  0  0  0  0  0  0  0  0
   -3.7445    1.8414    0.0000 C   0  0  0  0  0  0  0  0  0  0  0  0
   -3.3320    2.5559    0.0000 N   0  0  0  0  0  0  0  0  0  0  0  0
   -3.7445    3.2704    0.0000 C   0  0  0  0  0  0  0  0  0  0  0  0
   -3.3320    3.9849    0.0000 C   0  0  0  0  0  0  0  0  0  0  0  0
   -3.7445    4.6993    0.0000 C   0  0  0  0  0  0  0  0  0  0  0  0
   -4.5695    4.6993    0.0000 C   0  0  0  0  0  0  0  0  0  0  0  0
   -4.9820    5.4138    0.0000 C   0  0  0  0  0  0  0  0  0  0  0  0
   -4.5695    6.1283    0.0000 C   0  0  0  0  0  0  0  0  0  0  0  0
   -4.9820    6.8427    0.0000 O   0  0  0  0  0  0  0  0  0  0  0  0
   -4.5695    7.5572    0.0000 C   0  0  0  0  0  0  0  0  0  0  0  0
   -3.7445    6.1283    0.0000 C   0  0  0  0  0  0  0  0  0  0  0  0
   -3.3320    5.4138    0.0000 C   0  0  0  0  0  0  0  0  0  0  0  0
   -2.5070    2.5559    0.0000 C   0  0  0  0  0  0  0  0  0  0  0  0
   -2.0945    1.8414    0.0000 C   0  0  0  0  0  0  0  0  0  0  0  0
   -1.0396   -1.0396    0.0000 C   0  0  0  0  0  0  0  0  0  0  0  0
   -0.4875   -1.6527    0.0000 C   0  0  0  0  0  0  0  0  0  0  0  0
    0.3194   -1.4811    0.0000 C   0  0  0  0  0  0  0  0  0  0  0  0
    0.8715   -2.0942    0.0000 C   0  0  0  0  0  0  0  0  0  0  0  0
    0.6165   -2.8788    0.0000 C   0  0  0  0  0  0  0  0  0  0  0  0
   -0.1904   -3.0504    0.0000 C   0  0  0  0  0  0  0  0  0  0  0  0
   -0.7425   -2.4373    0.0000 C   0  0  0  0  0  0  0  0  0  0  0  0
    1.1686   -3.4919    0.0000 F   0  0  0  0  0  0  0  0  0  0  0  0
  1  2  2  0  0  0  0
  2  3  1  0  0  0  0
  3  4  1  0  0  0  0
  4  5  2  0  0  0  0
  5  6  1  0  0  0  0
  2  6  1  0  0  0  0
  6  7  2  0  0  0  0
  7  8  1  0  0  0  0
  8  9  2  0  0  0  0
  1  9  1  0  0  0  0
  4 10  1  0  0  0  0
 10 11  1  0  0  0  0
 11 12  1  0  0  0  0
 12 13  1  0  0  0  0
 13 14  1  0  0  0  0
 14 15  1  0  0  0  0
 15 16  1  0  0  0  0
 16 17  1  0  0  0  0
 17 18  2  0  0  0  0
 18 19  1  0  0  0  0
 19 20  2  0  0  0  0
 20 21  1  0  0  0  0
 21 22  1  0  0  0  0
 20 23  1  0  0  0  0
 23 24  2  0  0  0  0
 17 24  1  0  0  0  0
 14 25  1  0  0  0  0
 25 26  1  0  0  0  0
 11 26  1  0  0  0  0
  3 27  1  0  0  0  0
 27 28  1  0  0  0  0
 28 29  2  0  0  0  0
 29 30  1  0  0  0  0
 30 31  2  0  0  0  0
 31 32  1  0  0  0  0
 32 33  2  0  0  0  0
 28 33  1  0  0  0  0
 31 34  1  0  0  0  0
M  END
>  <Name>
Astemizole

>  <CAS>
68844-77-9

>  <Formula>
C28H31FN4O

>  <MolWt>
458.58 

>  <Bioactivity>
Antihistamine drug now withdrawn from the market in many countries because of rare but potentially fatal side effects.  

>  <Pathways>
Membrane Transporter/Ion Channel; Neuroscience

>  <Target>
Histamine Receptor;Potassium Channel inhibitor

>  <Receptor>
Histamine H1 receptor;Potassium Channel

>  <Reference>
1. Salata JJ, et al. Circ Res. 1995 Jan;76(1):110-9. 

$$$$
T0093L
  Mrv1561503291623562D          

 32 34  0  0  0  0            999 V2000
    6.4302   -2.8875    0.0000 C   0  0  0  0  0  0  0  0  0  0  0  0
    6.4302   -3.7125    0.0000 C   0  0  0  0  0  0  0  0  0  0  0  0
    7.1447   -4.1250    0.0000 O   0  0  0  0  0  0  0  0  0  0  0  0
    7.1447   -4.9500    0.0000 C   0  0  0  0  0  0  0  0  0  0  0  0
    7.8592   -5.3625    0.0000 C   0  0  0  0  0  0  0  0  0  0  0  0
    7.8592   -6.1875    0.0000 C   0  0  0  0  0  0  0  0  0  0  0  0
    7.1447   -6.6000    0.0000 C   0  0  0  0  0  0  0  0  0  0  0  0
    7.1447   -7.4250    0.0000 N   0  0  0  0  0  0  0  0  0  0  0  0
    6.4302   -7.8375    0.0000 C   0  0  0  0  0  0  0  0  0  0  0  0
    6.4302   -8.6625    0.0000 N   0  0  0  0  0  0  0  0  0  0  0  0
    5.7158   -9.0750    0.0000 C   0  0  0  0  0  0  0  0  0  0  0  0
    5.7158   -9.9000    0.0000 C   0  0  0  0  0  0  0  0  0  0  0  0
    5.0013  -10.3125    0.0000 C   0  0  0  0  0  0  0  0  0  0  0  0
    4.2868   -9.9000    0.0000 C   0  0  0  0  0  0  0  0  0  0  0  0
    4.2868   -9.0750    0.0000 C   0  0  0  0  0  0  0  0  0  0  0  0
    5.0013   -8.6625    0.0000 C   0  0  0  0  0  0  0  0  0  0  0  0
    3.5724  -10.3125    0.0000 Cl  0  0  0  0  0  0  0  0  0  0  0  0
    5.0013  -11.1375    0.0000 C   0  0  0  0  0  0  0  0  0  0  0  0
    5.0013  -11.9625    0.0000 F   0  0  0  0  0  0  0  0  0  0  0  0
    4.1763  -11.1375    0.0000 F   0  0  0  0  0  0  0  0  0  0  0  0
    5.8263  -11.1375    0.0000 F   0  0  0  0  0  0  0  0  0  0  0  0
    5.7158   -7.4250    0.0000 O   0  0  0  0  0  0  0  0  0  0  0  0
    6.4302   -6.1875    0.0000 C   0  0  0  0  0  0  0  0  0  0  0  0
    6.4302   -5.3625    0.0000 C   0  0  0  0  0  0  0  0  0  0  0  0
    5.7158   -4.1250    0.0000 C   0  0  0  0  0  0  0  0  0  0  0  0
    5.0013   -3.7125    0.0000 C   0  0  0  0  0  0  0  0  0  0  0  0
    5.0013   -2.8875    0.0000 N   0  0  0  0  0  0  0  0  0  0  0  0
    5.7158   -2.4750    0.0000 C   0  0  0  0  0  0  0  0  0  0  0  0
    5.7158   -1.6500    0.0000 C   0  0  0  0  0  0  0  0  0  0  0  0
    5.0013   -1.2375    0.0000 O   0  0  0  0  0  0  0  0  0  0  0  0
    6.4302   -1.2375    0.0000 N   0  0  0  0  0  0  0  0  0  0  0  0
    6.4302   -0.4125    0.0000 C   0  0  0  0  0  0  0  0  0  0  0  0
  1  2  2  0  0  0  0
  2  3  1  0  0  0  0
  3  4  1  0  0  0  0
  4  5  2  0  0  0  0
  5  6  1  0  0  0  0
  6  7  2  0  0  0  0
  7  8  1  0  0  0  0
  8  9  1  0  0  0  0
  9 10  1  0  0  0  0
 10 11  1  0  0  0  0
 11 12  2  0  0  0  0
 12 13  1  0  0  0  0
 13 14  2  0  0  0  0
 14 15  1  0  0  0  0
 15 16  2  0  0  0  0
 11 16  1  0  0  0  0
 14 17  1  0  0  0  0
 13 18  1  0  0  0  0
 18 19  1  0  0  0  0
 18 20  1  0  0  0  0
 18 21  1  0  0  0  0
  9 22  2  0  0  0  0
  7 23  1  0  0  0  0
 23 24  2  0  0  0  0
  4 24  1  0  0  0  0
  2 25  1  0  0  0  0
 25 26  2  0  0  0  0
 26 27  1  0  0  0  0
 27 28  2  0  0  0  0
  1 28  1  0  0  0  0
 28 29  1  0  0  0  0
 29 30  2  0  0  0  0
 29 31  1  0  0  0  0
 31 32  1  0  0  0  0
M  END
>  <Name>
Sorafenib

>  <CAS>
284461-73-0

>  <Formula>
C21H16ClF3N4O3

>  <MolWt>
464.83 

>  <Bioactivity>
Sorafenib (rINN), marketed as Nexavar by Bayer, is a drug approved for the treatment of advanced renal cell carcinoma (primary kidney cancer). It has also received "Fast Track" designation by the FDA for the treatment of advanced hepatocellular carcinoma (primary liver cancer), and has since performed well in Phase III trials. Sorafenib is a small molecular inhibitor of Raf kinase, PDGF (platelet-derived growth factor), VEGF receptor 2 & 3 kinases and c Kit the receptor for Stem cell factor. A growing number of drugs target most of these pathways. The originality of Sorafenib lays in its simultaneous targeting of the Raf/Mek/Erk pathway. 

>  <Pathways>
Tyrosine Kinase/Adaptors; MAPK Signaling 

>  <Target>
Raf inhibitor, VEGFR inhibitor, PDGFR inhibitor

>  <Receptor>
Raf, VEGFR, PDGFR

>  <Reference>
1. Wilhelm SM, et al. Cancer Res, 2004, 64(19), 7099-7109.

$$$$
14984-68-0
  Mrv1561503291623562D          

 25 25  0  0  0  0            999 V2000
    0.4125    0.0000    0.0000 H   0  3  0  0  0  0  0  0  0  0  0  0
    4.4416    1.4527    0.0000 C   0  0  0  0  0  0  0  0  0  0  0  0
    4.4416    0.6277    0.0000 C   0  0  0  0  0  0  0  0  0  0  0  0
    5.1561    0.2152    0.0000 C   0  0  0  0  0  0  0  0  0  0  0  0
    5.8706    0.6277    0.0000 O   0  0  0  0  0  0  0  0  0  0  0  0
    6.5850    0.2152    0.0000 C   0  0  0  0  0  0  0  0  0  0  0  0
    7.2995    0.6277    0.0000 C   0  0  0  0  0  0  0  0  0  0  0  0
    8.0140    0.2152    0.0000 N   0  0  0  0  0  0  0  0  0  0  0  0
    8.7285    0.6277    0.0000 C   0  0  0  0  0  0  0  0  0  0  0  0
    9.4429    0.2152    0.0000 C   0  0  0  0  0  0  0  0  0  0  0  0
    9.4429   -0.6098    0.0000 C   0  0  0  0  0  0  0  0  0  0  0  0
    8.7285   -1.0223    0.0000 C   0  0  0  0  0  0  0  0  0  0  0  0
    8.0140   -0.6098    0.0000 C   0  0  0  0  0  0  0  0  0  0  0  0
    5.1561   -0.6098    0.0000 C   0  0  0  0  0  0  0  0  0  0  0  0
    5.8706   -1.0223    0.0000 C   0  0  0  0  0  0  0  0  0  0  0  0
    5.8706   -1.8473    0.0000 C   0  0  0  0  0  0  0  0  0  0  0  0
    5.1561   -2.2598    0.0000 C   0  0  0  0  0  0  0  0  0  0  0  0
    4.4416   -1.8473    0.0000 C   0  0  0  0  0  0  0  0  0  0  0  0
    4.4416   -1.0223    0.0000 C   0  0  0  0  0  0  0  0  0  0  0  0
    3.7272    0.2152    0.0000 C   0  0  0  0  0  0  0  0  0  0  0  0
    3.0127    0.6277    0.0000 C   0  0  0  0  0  0  0  0  0  0  0  0
    3.0127    1.4527    0.0000 C   0  0  0  0  0  0  0  0  0  0  0  0
    3.7272    1.8652    0.0000 C   0  0  0  0  0  0  0  0  0  0  0  0
    2.2982    1.8652    0.0000 Cl  0  0  0  0  0  0  0  0  0  0  0  0
   -0.4125    0.0000    0.0000 Cl  0  5  0  0  0  0  0  0  0  0  0  0
  2  3  2  0  0  0  0
  3  4  1  0  0  0  0
  4  5  1  0  0  0  0
  5  6  1  0  0  0  0
  6  7  1  0  0  0  0
  7  8  1  0  0  0  0
  8  9  1  0  0  0  0
  9 10  1  0  0  0  0
 10 11  1  0  0  0  0
 11 12  1  0  0  0  0
 12 13  1  0  0  0  0
  8 13  1  0  0  0  0
  4 14  1  0  0  0  0
 14 15  2  0  0  0  0
 15 16  1  0  0  0  0
 16 17  2  0  0  0  0
 17 18  1  0  0  0  0
 18 19  2  0  0  0  0
 14 19  1  0  0  0  0
  3 20  1  0  0  0  0
 20 21  2  0  0  0  0
 21 22  1  0  0  0  0
 22 23  2  0  0  0  0
  2 23  1  0  0  0  0
 22 24  1  0  0  0  0
M  CHG  2   1   1  25  -1
M  END
>  <Name>
Cloperastine HCl

>  <CAS>
14984-68-0

>  <Formula>
C20H25Cl2NO

>  <MolWt>
366.33 

>  <Bioactivity>
Luteolin is a flavone, a type of flavonoid. Like all flavonoids, it has a yellow crystalline appearance.

>  <Pathways>
Neuroscience

>  <Target>
Histamine Receptor antagonist

>  <Receptor>
Histamine receptor

>  <Reference>
1. Yu MC, et al. Eur J Pharmacol, 2010, 627(1-3), 269-275.

$$$$
T0242
  Mrv1561503291623562D          

 28 30  0  0  0  0            999 V2000
    0.7145   -0.4125    0.0000 C   0  0  0  0  0  0  0  0  0  0  0  0
   -0.0000   -0.0000    0.0000 C   0  0  0  0  0  0  0  0  0  0  0  0
   -0.0000    0.8250    0.0000 N   0  0  0  0  0  0  0  0  0  0  0  0
    0.7145    1.2375    0.0000 C   0  0  0  0  0  0  0  0  0  0  0  0
    0.5429    2.0445    0.0000 N   0  0  0  0  0  0  0  0  0  0  0  0
   -0.2775    2.1307    0.0000 N   0  0  0  0  0  0  0  0  0  0  0  0
   -0.6131    1.3770    0.0000 C   0  0  0  0  0  0  0  0  0  0  0  0
   -1.4201    1.2055    0.0000 C   0  0  0  0  0  0  0  0  0  0  0  0
   -2.2270    1.0340    0.0000 F   0  0  0  0  0  0  0  0  0  0  0  0
   -1.2485    0.3985    0.0000 F   0  0  0  0  0  0  0  0  0  0  0  0
   -1.5916    2.0125    0.0000 F   0  0  0  0  0  0  0  0  0  0  0  0
    1.4289    0.8250    0.0000 C   0  0  0  0  0  0  0  0  0  0  0  0
    1.4289   -0.0000    0.0000 N   0  0  0  0  0  0  0  0  0  0  0  0
    2.1434   -0.4125    0.0000 C   0  0  0  0  0  0  0  0  0  0  0  0
    2.1434   -1.2375    0.0000 O   0  0  0  0  0  0  0  0  0  0  0  0
    2.8579   -0.0000    0.0000 C   0  0  0  0  0  0  0  0  0  0  0  0
    3.5724   -0.4125    0.0000 C   0  0  0  0  0  0  0  0  0  0  0  0
    4.2868   -0.0000    0.0000 C   0  0  0  0  0  0  0  0  0  0  0  0
    5.0013   -0.4125    0.0000 C   0  0  0  0  0  0  0  0  0  0  0  0
    5.7158   -0.0000    0.0000 C   0  0  0  0  0  0  0  0  0  0  0  0
    6.4302   -0.4125    0.0000 C   0  0  0  0  0  0  0  0  0  0  0  0
    6.4302   -1.2375    0.0000 C   0  0  0  0  0  0  0  0  0  0  0  0
    5.7158   -1.6500    0.0000 C   0  0  0  0  0  0  0  0  0  0  0  0
    5.0013   -1.2375    0.0000 C   0  0  0  0  0  0  0  0  0  0  0  0
    4.2868   -1.6500    0.0000 F   0  0  0  0  0  0  0  0  0  0  0  0
    7.1447   -1.6500    0.0000 F   0  0  0  0  0  0  0  0  0  0  0  0
    7.1447   -0.0000    0.0000 F   0  0  0  0  0  0  0  0  0  0  0  0
    3.5724   -1.2375    0.0000 N   0  0  0  0  0  0  0  0  0  0  0  0
  1  2  1  0  0  0  0
  2  3  1  0  0  0  0
  3  4  1  0  0  0  0
  4  5  2  0  0  0  0
  5  6  1  0  0  0  0
  6  7  2  0  0  0  0
  3  7  1  0  0  0  0
  7  8  1  0  0  0  0
  8  9  1  0  0  0  0
  8 10  1  0  0  0  0
  8 11  1  0  0  0  0
  4 12  1  0  0  0  0
 12 13  1  0  0  0  0
  1 13  1  0  0  0  0
 13 14  1  0  0  0  0
 14 15  2  0  0  0  0
 14 16  1  0  0  0  0
 16 17  1  0  0  0  0
 17 18  1  0  0  0  0
 18 19  1  0  0  0  0
 19 20  2  0  0  0  0
 20 21  1  0  0  0  0
 21 22  2  0  0  0  0
 22 23  1  0  0  0  0
 23 24  2  0  0  0  0
 19 24  1  0  0  0  0
 24 25  1  0  0  0  0
 22 26  1  0  0  0  0
 21 27  1  0  0  0  0
 17 28  1  0  0  0  0
M  END
>  <Name>
Sitagliptin

>  <CAS>
486460-32-6

>  <Formula>
C16H15F6N5O

>  <MolWt>
407.32 

>  <Bioactivity>
Sitagliptin is a new oral hypoglycemic (anti-diabetic drug) of the new dipeptidyl peptidase-4 (DPP-4) inhibitor class of drugs. This enzyme-inhibiting drug is to be used either alone or in combination with metformin or a thiazolidinedione for control of type 2 diabetes mellitus. The drug works to competitively inhibit a protein/enzyme, dipeptidyl peptidase 4 (DPP-4), that results in an increased amount of active incretins (GLP-1 and GIP), reduced amount of release of glucagon (diminishes its release) and increased release of insulin. 

>  <Pathways>
Proteases/Proteasome

>  <Target>
DPP-4 inhibitor

>  <Receptor>
DDP-4

>  <Reference>
1. Herman GA, et al. Clin Pharmacol Ther. 2005 Dec;78(6):675-88.

$$$$
56-91-7
  Mrv1561503291623562D          

 11 11  0  0  0  0            999 V2000
    1.4289   -0.0000    0.0000 C   0  0  0  0  0  0  0  0  0  0  0  0
    0.7145   -0.4125    0.0000 C   0  0  0  0  0  0  0  0  0  0  0  0
   -0.0000   -0.0000    0.0000 C   0  0  0  0  0  0  0  0  0  0  0  0
   -0.0000    0.8250    0.0000 C   0  0  0  0  0  0  0  0  0  0  0  0
    0.7145    1.2375    0.0000 C   0  0  0  0  0  0  0  0  0  0  0  0
    1.4289    0.8250    0.0000 C   0  0  0  0  0  0  0  0  0  0  0  0
    0.7145    2.0625    0.0000 C   0  0  0  0  0  0  0  0  0  0  0  0
    1.4289    2.4750    0.0000 N   0  0  0  0  0  0  0  0  0  0  0  0
    0.7145   -1.2375    0.0000 C   0  0  0  0  0  0  0  0  0  0  0  0
    1.4289   -1.6500    0.0000 O   0  0  0  0  0  0  0  0  0  0  0  0
   -0.0000   -1.6500    0.0000 O   0  0  0  0  0  0  0  0  0  0  0  0
  1  2  2  0  0  0  0
  2  3  1  0  0  0  0
  3  4  2  0  0  0  0
  4  5  1  0  0  0  0
  5  6  2  0  0  0  0
  1  6  1  0  0  0  0
  5  7  1  0  0  0  0
  7  8  1  0  0  0  0
  2  9  1  0  0  0  0
  9 10  1  0  0  0  0
  9 11  2  0  0  0  0
M  END
>  <Name>
PAMBA

>  <CAS>
56-91-7

>  <Formula>
C8H9NO2

>  <MolWt>
151.16 

>  <Bioactivity>
It is an antifibrinolytic.

>  <Pathways>
Others

>  <Target>
Others

>  <Receptor>
Others

>  <Reference>
1. Ambasta SS, et al. Indian J Med Res. 1988 Jul;88:57-9.

$$$$
T0093
  Mrv1561503291623562D          

 43 45  0  0  0  0            999 V2000
   -1.2727   -2.2301    0.0000 C   0  0  0  0  0  0  0  0  0  0  0  0
   -1.9871   -2.6426    0.0000 C   0  0  0  0  0  0  0  0  0  0  0  0
   -2.7016   -2.2301    0.0000 C   0  0  0  0  0  0  0  0  0  0  0  0
   -2.7016   -1.4051    0.0000 C   0  0  0  0  0  0  0  0  0  0  0  0
   -1.9871   -0.9926    0.0000 C   0  0  0  0  0  0  0  0  0  0  0  0
   -1.2727   -1.4051    0.0000 C   0  0  0  0  0  0  0  0  0  0  0  0
   -1.9871   -0.1676    0.0000 N   0  0  0  0  0  0  0  0  0  0  0  0
   -1.2727    0.2449    0.0000 C   0  0  0  0  0  0  0  0  0  0  0  0
   -0.5582   -0.1676    0.0000 O   0  0  0  0  0  0  0  0  0  0  0  0
   -1.2727    1.0699    0.0000 N   0  0  0  0  0  0  0  0  0  0  0  0
   -0.5582    1.4824    0.0000 C   0  0  0  0  0  0  0  0  0  0  0  0
   -0.5582    2.3074    0.0000 C   0  0  0  0  0  0  0  0  0  0  0  0
    0.1563    2.7199    0.0000 C   0  0  0  0  0  0  0  0  0  0  0  0
    0.8708    2.3074    0.0000 C   0  0  0  0  0  0  0  0  0  0  0  0
    0.8708    1.4824    0.0000 C   0  0  0  0  0  0  0  0  0  0  0  0
    0.1563    1.0699    0.0000 C   0  0  0  0  0  0  0  0  0  0  0  0
    1.5852    2.7199    0.0000 O   0  0  0  0  0  0  0  0  0  0  0  0
    2.2997    2.3074    0.0000 C   0  0  0  0  0  0  0  0  0  0  0  0
    3.0142    2.7199    0.0000 C   0  0  0  0  0  0  0  0  0  0  0  0
    3.7286    2.3074    0.0000 C   0  0  0  0  0  0  0  0  0  0  0  0
    3.7286    1.4824    0.0000 N   0  0  0  0  0  0  0  0  0  0  0  0
    3.0142    1.0699    0.0000 C   0  0  0  0  0  0  0  0  0  0  0  0
    2.2997    1.4824    0.0000 C   0  0  0  0  0  0  0  0  0  0  0  0
    3.0142    0.2449    0.0000 C   0  0  0  0  0  0  0  0  0  0  0  0
    2.2997   -0.1676    0.0000 O   0  0  0  0  0  0  0  0  0  0  0  0
    3.7286   -0.1676    0.0000 N   0  0  0  0  0  0  0  0  0  0  0  0
    3.7286   -0.9926    0.0000 C   0  0  0  0  0  0  0  0  0  0  0  0
   -3.4161   -2.6426    0.0000 C   0  0  0  0  0  0  0  0  0  0  0  0
   -4.1305   -3.0551    0.0000 F   0  0  0  0  0  0  0  0  0  0  0  0
   -3.8286   -1.9281    0.0000 F   0  0  0  0  0  0  0  0  0  0  0  0
   -3.0036   -3.3570    0.0000 F   0  0  0  0  0  0  0  0  0  0  0  0
   -1.9871   -3.4676    0.0000 Cl  0  0  0  0  0  0  0  0  0  0  0  0
    7.0433   -0.1125    0.0000 C   0  0  0  0  0  0  0  0  0  0  0  0
    7.0433   -0.9375    0.0000 C   0  0  0  0  0  0  0  0  0  0  0  0
    6.3288   -1.3500    0.0000 C   0  0  0  0  0  0  0  0  0  0  0  0
    5.6144   -0.9375    0.0000 C   0  0  0  0  0  0  0  0  0  0  0  0
    5.6144   -0.1125    0.0000 C   0  0  0  0  0  0  0  0  0  0  0  0
    6.3288    0.3000    0.0000 C   0  0  0  0  0  0  0  0  0  0  0  0
    6.3288    1.1250    0.0000 S   0  0  0  0  0  0  0  0  0  0  0  0
    6.3288    1.9500    0.0000 O   0  0  0  0  0  0  0  0  0  0  0  0
    5.5038    1.1250    0.0000 O   0  0  0  0  0  0  0  0  0  0  0  0
    7.1538    1.1250    0.0000 O   0  0  0  0  0  0  0  0  0  0  0  0
    6.3288   -2.1750    0.0000 C   0  0  0  0  0  0  0  0  0  0  0  0
  1  2  2  0  0  0  0
  2  3  1  0  0  0  0
  3  4  2  0  0  0  0
  4  5  1  0  0  0  0
  5  6  2  0  0  0  0
  1  6  1  0  0  0  0
  5  7  1  0  0  0  0
  7  8  1  0  0  0  0
  8  9  2  0  0  0  0
  8 10  1  0  0  0  0
 10 11  1  0  0  0  0
 11 12  2  0  0  0  0
 12 13  1  0  0  0  0
 13 14  2  0  0  0  0
 14 15  1  0  0  0  0
 15 16  2  0  0  0  0
 11 16  1  0  0  0  0
 14 17  1  0  0  0  0
 17 18  1  0  0  0  0
 18 19  2  0  0  0  0
 19 20  1  0  0  0  0
 20 21  2  0  0  0  0
 21 22  1  0  0  0  0
 22 23  2  0  0  0  0
 18 23  1  0  0  0  0
 22 24  1  0  0  0  0
 24 25  2  0  0  0  0
 24 26  1  0  0  0  0
 26 27  1  0  0  0  0
  3 28  1  0  0  0  0
 28 29  1  0  0  0  0
 28 30  1  0  0  0  0
 28 31  1  0  0  0  0
  2 32  1  0  0  0  0
 33 34  2  0  0  0  0
 34 35  1  0  0  0  0
 35 36  2  0  0  0  0
 36 37  1  0  0  0  0
 37 38  2  0  0  0  0
 33 38  1  0  0  0  0
 38 39  1  0  0  0  0
 39 40  2  0  0  0  0
 39 41  2  0  0  0  0
 39 42  1  0  0  0  0
 35 43  1  0  0  0  0
M  END
>  <Name>
Sorafenib tosylate

>  <CAS>
475207-59-1

>  <Formula>
C21H16ClF3N4O3.C7H8O3S

>  <MolWt>
637.03 

>  <Bioactivity>
Sorafenib (rINN), marketed as Nexavar by Bayer, is a drug approved for the treatment of advanced renal cell carcinoma (primary kidney cancer). It has also received “Fast Track” designation by the FDA for the treatment of advanced hepatocellular carcinoma (primary liver cancer), and has since performed well in Phase III trials.
Sorafenib is a small molecular inhibitor of Raf kinase, PDGF (platelet-derived growth factor), VEGF receptor 2 & 3 kinases and c Kit the receptor for Stem cell factor. A growing number of drugs target most of these pathways. The originality of Sorafenib lays in its simultaneous targeting of the Raf/Mek/Erk pathway.

>  <Pathways>
Tyrosine Kinase/Adaptors; MAPK Signaling 

>  <Target>
PDGFR inhibitor; Raf inhibitor; FLT3 inhibitor, FGFR inhibitor, RET inhibitor; Mast/stem cell GFR Kit

>  <Receptor>
PDGFR?, B-raf, RAF-1, FLT3,  Mast/stem cell GFR, FGFR1, ret;Mast/stem cell GFR Kit

>  <Reference>
1. Wilhelm SM, et al. Cancer Res, 2004, 64(19), 7099-7109.

$$$$
60643-86-9
  Mrv1561503291623562D          

  9  8  0  0  0  0            999 V2000
    3.9039    1.4289    0.0000 C   0  0  0  0  0  0  0  0  0  0  0  0
    3.1895    1.8414    0.0000 C   0  0  0  0  0  0  0  0  0  0  0  0
    2.4750    1.4289    0.0000 C   0  0  0  0  0  0  0  0  0  0  0  0
    1.7605    1.8414    0.0000 C   0  0  0  0  0  0  0  0  0  0  0  0
    3.1895    2.6664    0.0000 N   0  0  0  0  0  0  0  0  0  0  0  0
    4.6184    1.8414    0.0000 C   0  0  0  0  0  0  0  0  0  0  0  0
    5.3329    1.4289    0.0000 C   0  0  0  0  0  0  0  0  0  0  0  0
    6.0474    1.8414    0.0000 O   0  0  0  0  0  0  0  0  0  0  0  0
    5.3329    0.6039    0.0000 O   0  0  0  0  0  0  0  0  0  0  0  0
  1  2  1  0  0  0  0
  2  3  1  0  0  0  0
  3  4  2  0  0  0  0
  2  5  1  0  0  0  0
  1  6  1  0  0  0  0
  6  7  1  0  0  0  0
  7  8  1  0  0  0  0
  7  9  2  0  0  0  0
M  END
>  <Name>
Vigabatrin

>  <CAS>
60643-86-9

>  <Formula>
C6H11NO2

>  <MolWt>
129.16 

>  <Bioactivity>
An analogue of gamma-aminobutyric acid, vigabatrin is an irreversible inhibitor of 4-aminobutyrate transaminase, the enzyme responsible for the catabolism of gamma-aminobutyric acid. (From Martindale The Extra Pharmacopoeia, 31st ed). Off-label uses include treatment of cocaine dependence.

>  <Pathways>
Neuroscience

>  <Target>
GABAR agonist

>  <Receptor>
ABAT;GABA

>  <Reference>
1. Tyacke RJ, et al. Adv Pharmacol. 2010;58:373-96. 

$$$$
51781-21-6
  Mrv1561503291623562D          

 23 22  0  0  0  0            999 V2000
    0.4125    0.0000    0.0000 H   0  3  0  0  0  0  0  0  0  0  0  0
    4.9131    1.2571    0.0000 C   0  0  0  0  0  0  0  0  0  0  0  0
    5.6275    0.8446    0.0000 C   0  0  0  0  0  0  0  0  0  0  0  0
    5.6275    0.0196    0.0000 O   0  0  0  0  0  0  0  0  0  0  0  0
    4.9131   -0.3929    0.0000 C   0  0  0  0  0  0  0  0  0  0  0  0
    4.9131   -1.2179    0.0000 C   0  0  0  0  0  0  0  0  0  0  0  0
    5.6275   -1.6304    0.0000 O   0  0  0  0  0  0  0  0  0  0  0  0
    4.1986   -1.6304    0.0000 C   0  0  0  0  0  0  0  0  0  0  0  0
    4.1986   -2.4554    0.0000 N   0  0  0  0  0  0  0  0  0  0  0  0
    3.4841   -2.8679    0.0000 C   0  0  0  0  0  0  0  0  0  0  0  0
    2.7696   -3.2804    0.0000 C   0  0  0  0  0  0  0  0  0  0  0  0
    3.8966   -3.5823    0.0000 C   0  0  0  0  0  0  0  0  0  0  0  0
    3.0716   -2.1534    0.0000 C   0  0  0  0  0  0  0  0  0  0  0  0
    6.3420    1.2571    0.0000 C   0  0  0  0  0  0  0  0  0  0  0  0
    6.3420    2.0821    0.0000 C   0  0  0  0  0  0  0  0  0  0  0  0
    7.0565    2.4946    0.0000 N   0  0  0  0  0  0  0  0  0  0  0  0
    7.7709    2.0821    0.0000 C   0  0  0  0  0  0  0  0  0  0  0  0
    8.4854    2.4946    0.0000 O   0  0  0  0  0  0  0  0  0  0  0  0
    7.7709    1.2571    0.0000 C   0  0  0  0  0  0  0  0  0  0  0  0
    7.0565    0.8446    0.0000 C   0  0  0  0  0  0  0  0  0  0  0  0
    5.6275    2.4946    0.0000 C   0  0  0  0  0  0  0  0  0  0  0  0
    4.9131    2.0821    0.0000 C   0  0  0  0  0  0  0  0  0  0  0  0
   -0.4125    0.0000    0.0000 Cl  0  5  0  0  0  0  0  0  0  0  0  0
  2  3  2  0  0  0  0
  3  4  1  0  0  0  0
  4  5  1  0  0  0  0
  5  6  1  0  0  0  0
  6  7  1  0  0  0  0
  6  8  1  0  0  0  0
  8  9  1  0  0  0  0
  9 10  1  0  0  0  0
 10 11  1  0  0  0  0
 10 12  1  0  0  0  0
 10 13  1  0  0  0  0
  3 14  1  0  0  0  0
 14 15  2  0  0  0  0
 15 16  1  0  0  0  0
 16 17  1  0  0  0  0
 17 18  2  0  0  0  0
 17 19  1  0  0  0  0
 19 20  1  0  0  0  0
 14 20  1  0  0  0  0
 15 21  1  0  0  0  0
 21 22  2  0  0  0  0
  2 22  1  0  0  0  0
M  CHG  2   1   1  23  -1
M  END
>  <Name>
Carteolol HCl

>  <CAS>
51781-21-6

>  <Formula>
C16H24N2O3.HCl

>  <MolWt>
328.83 

>  <Bioactivity>
A beta-adrenergic antagonist used as an anti-arrhythmia agent, an anti-angina agent, an antihypertensive agent, and an antiglaucoma agent.

>  <Pathways>
GPCR/G Protein

>  <Target>
Adrenergic Receptor antagonist

>  <Receptor>
Adrenergic Receptor

>  <Reference>
1. Wheeldon NM, et al. Br J Clin Pharmacol. 1992 Apr;33(4):411-6.

$$$$
T1484
  Mrv1561503291623562D          

 24 25  0  0  1  0            999 V2000
    1.8549    0.0614    0.0000 C   0  0  2  0  0  0  0  0  0  0  0  0
    1.1875   -0.4235    0.0000 N   0  0  0  0  0  0  0  0  0  0  0  0
    0.5200    0.0614    0.0000 C   0  0  1  0  0  0  0  0  0  0  0  0
    0.7750    0.8460    0.0000 C   0  0  0  0  0  0  0  0  0  0  0  0
    1.6000    0.8460    0.0000 C   0  0  2  0  0  0  0  0  0  0  0  0
    2.1520    1.4591    0.0000 C   0  0  0  0  0  0  0  0  0  0  0  0
    2.9590    1.2876    0.0000 C   0  0  0  0  0  0  0  0  0  0  0  0
    3.2139    0.5030    0.0000 C   0  0  0  0  0  0  0  0  0  0  0  0
    2.6619   -0.1101    0.0000 C   0  0  0  0  0  0  0  0  0  0  0  0
   -0.2646   -0.1936    0.0000 C   0  0  0  0  0  0  0  0  0  0  0  0
   -0.8777    0.3585    0.0000 O   0  0  0  0  0  0  0  0  0  0  0  0
   -0.4361   -1.0005    0.0000 O   0  0  0  0  0  0  0  0  0  0  0  0
    1.1875   -1.2485    0.0000 C   0  0  0  0  0  0  0  0  0  0  0  0
    1.9019   -1.6610    0.0000 C   0  0  1  0  0  0  0  0  0  0  0  0
    2.6164   -1.2485    0.0000 N   0  0  0  0  0  0  0  0  0  0  0  0
    3.3309   -1.6610    0.0000 C   0  0  1  0  0  0  0  0  0  0  0  0
    4.0454   -1.2485    0.0000 C   0  0  0  0  0  0  0  0  0  0  0  0
    4.7598   -1.6610    0.0000 C   0  0  0  0  0  0  0  0  0  0  0  0
    4.7598   -2.4860    0.0000 C   0  0  0  0  0  0  0  0  0  0  0  0
    3.3309   -2.4860    0.0000 C   0  0  0  0  0  0  0  0  0  0  0  0
    4.0454   -2.8985    0.0000 O   0  0  0  0  0  0  0  0  0  0  0  0
    2.6164   -2.8985    0.0000 O   0  0  0  0  0  0  0  0  0  0  0  0
    1.9019   -2.4860    0.0000 C   0  0  0  0  0  0  0  0  0  0  0  0
    0.4730   -1.6610    0.0000 O   0  0  0  0  0  0  0  0  0  0  0  0
  1  2  1  6  0  0  0
  2  3  1  0  0  0  0
  3  4  1  0  0  0  0
  5  4  1  6  0  0  0
  1  5  1  0  0  0  0
  5  6  1  0  0  0  0
  6  7  1  0  0  0  0
  7  8  1  0  0  0  0
  8  9  1  0  0  0  0
  1  9  1  0  0  0  0
  3 10  1  6  0  0  0
 10 11  1  0  0  0  0
 10 12  2  0  0  0  0
  2 13  1  0  0  0  0
 13 14  1  0  0  0  0
 14 15  1  0  0  0  0
 16 15  1  1  0  0  0
 16 17  1  0  0  0  0
 17 18  1  0  0  0  0
 18 19  1  0  0  0  0
 16 20  1  0  0  0  0
 20 21  1  0  0  0  0
 20 22  2  0  0  0  0
 14 23  1  1  0  0  0
 13 24  2  0  0  0  0
M  END
>  <Name>
Perindoprilat

>  <CAS>
95153-31-4

>  <Formula>
C17H28N2O5

>  <MolWt>
340.41 

>  <Bioactivity>
Perindoprilat is an Angiotensin Converting Enzyme Inhibitor. The mechanism of action of perindoprilat is as an Angiotensin-converting Enzyme Inhibitor.

>  <Pathways>
Angiogenesis;Endocrinology/ Hormones

>  <Target>
RAAS inhibitor; ACE inhibitor;ChE inhibitor;MRP inhibitor

>  <Receptor>
ACE;ChE;MRP

>  <Reference>
1.Alfakih K, Hall AS. Expert Opin Pharmacother. 2006 Jan;7(1):63-71. 

$$$$
113-59-7
  Mrv1561503291623562D          

 21 23  0  0  0  0            999 V2000
    3.5724    1.2375    0.0000 C   0  0  0  0  0  0  0  0  0  0  0  0
    4.2868    0.8250    0.0000 C   0  0  0  0  0  0  0  0  0  0  0  0
    5.0013    1.2375    0.0000 Cl  0  0  0  0  0  0  0  0  0  0  0  0
    4.2868   -0.0000    0.0000 C   0  0  0  0  0  0  0  0  0  0  0  0
    3.5724   -0.4125    0.0000 C   0  0  0  0  0  0  0  0  0  0  0  0
    2.8579   -0.0000    0.0000 C   0  0  0  0  0  0  0  0  0  0  0  0
    2.8579    0.8250    0.0000 C   0  0  0  0  0  0  0  0  0  0  0  0
    2.1434    1.2375    0.0000 C   0  0  0  0  0  0  0  0  0  0  0  0
    1.4289    0.8250    0.0000 C   0  0  0  0  0  0  0  0  0  0  0  0
    1.4289   -0.0000    0.0000 C   0  0  0  0  0  0  0  0  0  0  0  0
    0.7145   -0.4125    0.0000 C   0  0  0  0  0  0  0  0  0  0  0  0
   -0.0000    0.0000    0.0000 C   0  0  0  0  0  0  0  0  0  0  0  0
    0.0000    0.8250    0.0000 C   0  0  0  0  0  0  0  0  0  0  0  0
    0.7145    1.2375    0.0000 C   0  0  0  0  0  0  0  0  0  0  0  0
    2.1434   -0.4125    0.0000 S   0  0  0  0  0  0  0  0  0  0  0  0
    2.1434    2.0625    0.0000 C   0  0  0  0  0  0  0  0  0  0  0  0
    2.8579    2.4750    0.0000 C   0  0  0  0  0  0  0  0  0  0  0  0
    2.8579    3.3000    0.0000 C   0  0  0  0  0  0  0  0  0  0  0  0
    3.5724    3.7125    0.0000 N   0  0  0  0  0  0  0  0  0  0  0  0
    3.5724    4.5375    0.0000 C   0  0  0  0  0  0  0  0  0  0  0  0
    4.2868    3.3000    0.0000 C   0  0  0  0  0  0  0  0  0  0  0  0
  1  2  2  0  0  0  0
  2  3  1  0  0  0  0
  2  4  1  0  0  0  0
  4  5  2  0  0  0  0
  5  6  1  0  0  0  0
  6  7  2  0  0  0  0
  1  7  1  0  0  0  0
  7  8  1  0  0  0  0
  8  9  1  0  0  0  0
  9 10  2  0  0  0  0
 10 11  1  0  0  0  0
 11 12  2  0  0  0  0
 12 13  1  0  0  0  0
 13 14  2  0  0  0  0
  9 14  1  0  0  0  0
 10 15  1  0  0  0  0
  6 15  1  0  0  0  0
  8 16  2  0  0  0  0
 16 17  1  0  0  0  0
 17 18  1  0  0  0  0
 18 19  1  0  0  0  0
 19 20  1  0  0  0  0
 19 21  1  0  0  0  0
M  END
>  <Name>
Chlorprothixene

>  <CAS>
113-59-7

>  <Formula>
C18H18ClNS

>  <MolWt>
315.86 

>  <Bioactivity>
Chlorprothixene is a typical antipsychotic drug of the thioxanthene class and was the first of the series to be synthesized.

>  <Pathways>
Neuroscience

>  <Target>
AChR antagonist;Dopamine Receptor antagonist;Histamine antagonist;5-HT receptor antagonist

>  <Receptor>
Muscarinic AChR;Dopamine receptor;Histamine H1 receptor;5-HT receptor

>  <Reference>
1. Froimowitz M, Cody V. J Med Chem. 1993 Jul 23;36(15):2219-27.

$$$$
T0234
  Mrv1561503291623562D          

 27 28  0  0  1  0            999 V2000
    1.7733    0.2488    0.0000 C   0  0  0  0  0  0  0  0  0  0  0  0
    2.5579    0.5038    0.0000 S   0  0  0  0  0  0  0  0  0  0  0  0
    3.0428   -0.1637    0.0000 C   0  0  0  0  0  0  0  0  0  0  0  0
    2.5579   -0.8311    0.0000 C   0  0  0  0  0  0  0  0  0  0  0  0
    1.7733   -0.5762    0.0000 N   0  0  0  0  0  0  0  0  0  0  0  0
    0.9483   -0.5762    0.0000 C   0  0  0  0  0  0  0  0  0  0  0  0
    0.3649   -1.1595    0.0000 O   0  0  0  0  0  0  0  0  0  0  0  0
    0.9483    0.2488    0.0000 C   0  0  0  0  0  0  0  0  0  0  0  0
    0.3649    0.8322    0.0000 N   0  0  0  0  0  0  0  0  0  0  0  0
   -0.4319    0.6187    0.0000 C   0  0  0  0  0  0  0  0  0  0  0  0
   -0.6455   -0.1782    0.0000 O   0  0  0  0  0  0  0  0  0  0  0  0
   -1.0153    1.2020    0.0000 C   0  0  0  0  0  0  0  0  0  0  0  0
   -1.8122    0.9885    0.0000 C   0  0  0  0  0  0  0  0  0  0  0  0
   -2.0257    0.1916    0.0000 O   0  0  0  0  0  0  0  0  0  0  0  0
   -2.8226   -0.0219    0.0000 C   0  0  0  0  0  0  0  0  0  0  0  0
   -2.3956    1.5719    0.0000 C   0  0  0  0  0  0  0  0  0  0  0  0
   -2.1820    2.3687    0.0000 C   0  0  0  0  0  0  0  0  0  0  0  0
   -1.3851    2.5823    0.0000 C   0  0  0  0  0  0  0  0  0  0  0  0
   -0.8018    1.9989    0.0000 C   0  0  0  0  0  0  0  0  0  0  0  0
   -0.0049    2.2124    0.0000 O   0  0  0  0  0  0  0  0  0  0  0  0
    0.5785    1.6291    0.0000 C   0  0  0  0  0  0  0  0  0  0  0  0
    2.8129   -1.6157    0.0000 C   0  0  0  0  0  0  0  0  0  0  0  0
    3.6198   -1.7873    0.0000 O   0  5  0  0  0  0  0  0  0  0  0  0
    2.2608   -2.2288    0.0000 O   0  0  0  0  0  0  0  0  0  0  0  0
    3.7616    0.2413    0.0000 C   0  0  0  0  0  0  0  0  0  0  0  0
    3.7616   -0.5687    0.0000 C   0  0  0  0  0  0  0  0  0  0  0  0
    4.4268   -1.9588    0.0000 Na  0  3  0  0  0  0  0  0  0  0  0  0
  1  2  1  0  0  0  0
  2  3  1  0  0  0  0
  3  4  1  0  0  0  0
  4  5  1  0  0  0  0
  1  5  1  0  0  0  0
  5  6  1  0  0  0  0
  6  7  2  0  0  0  0
  6  8  1  0  0  0  0
  1  8  1  0  0  0  0
  8  9  1  0  0  0  0
  9 10  1  0  0  0  0
 10 11  2  0  0  0  0
 10 12  1  0  0  0  0
 12 13  2  0  0  0  0
 13 14  1  0  0  0  0
 14 15  1  0  0  0  0
 13 16  1  0  0  0  0
 16 17  2  0  0  0  0
 17 18  1  0  0  0  0
 18 19  2  0  0  0  0
 12 19  1  0  0  0  0
 19 20  1  0  0  0  0
 20 21  1  0  0  0  0
  4 22  1  0  0  0  0
 22 23  1  0  0  0  0
 22 24  2  0  0  0  0
  3 25  1  0  0  0  0
  3 26  1  0  0  0  0
M  CHG  2  23  -1  27   1
M  END
>  <Name>
Methicillin sodium

>  <CAS>
132-92-3

>  <Formula>
C17H19N2NaO6S

>  <MolWt>
402.40 

>  <Bioactivity>
One of the PENICILLINS which is resistant to PENICILLINASE but susceptible to a penicillin-binding protein. It is inactivated by gastric acid so administered by injection. 

>  <Pathways>
Microbiology & Virology

>  <Target>
Antibacterial

>  <Receptor>
PBPs

>  <Reference>
1. Williamson R, et al. Antimicrob Agents Chemother. 1980 Oct;18(4):629-37.

$$$$
50679-08-8
  Mrv1561503291623562D          

 35 38  0  0  0  0            999 V2000
    3.0789   -0.8250    0.0000 C   0  0  0  0  0  0  0  0  0  0  0  0
    3.0789   -1.6500    0.0000 C   0  0  0  0  0  0  0  0  0  0  0  0
    2.3645   -2.0625    0.0000 C   0  0  0  0  0  0  0  0  0  0  0  0
    1.6500   -1.6500    0.0000 C   0  0  0  0  0  0  0  0  0  0  0  0
    1.6500   -0.8250    0.0000 C   0  0  0  0  0  0  0  0  0  0  0  0
    2.3645   -0.4125    0.0000 C   0  0  0  0  0  0  0  0  0  0  0  0
    2.3645    0.4125    0.0000 C   0  0  0  0  0  0  0  0  0  0  0  0
    2.3645    1.2375    0.0000 C   0  0  0  0  0  0  0  0  0  0  0  0
    1.6500    1.6500    0.0000 C   0  0  0  0  0  0  0  0  0  0  0  0
    1.6500    2.4750    0.0000 C   0  0  0  0  0  0  0  0  0  0  0  0
    2.3645    2.8875    0.0000 N   0  0  0  0  0  0  0  0  0  0  0  0
    2.3645    3.7125    0.0000 C   0  0  0  0  0  0  0  0  0  0  0  0
    1.6500    4.1250    0.0000 C   0  0  0  0  0  0  0  0  0  0  0  0
    1.6500    4.9500    0.0000 C   0  0  0  0  0  0  0  0  0  0  0  0
    0.9355    5.3625    0.0000 C   0  0  0  0  0  0  0  0  0  0  0  0
    0.9355    6.1875    0.0000 C   0  0  0  0  0  0  0  0  0  0  0  0
    0.2211    6.6000    0.0000 C   0  0  0  0  0  0  0  0  0  0  0  0
    0.2211    7.4250    0.0000 C   0  0  0  0  0  0  0  0  0  0  0  0
    0.9355    7.8375    0.0000 C   0  0  0  0  0  0  0  0  0  0  0  0
    0.9355    8.6625    0.0000 C   0  0  0  0  0  0  0  0  0  0  0  0
    0.9355    9.4875    0.0000 C   0  0  0  0  0  0  0  0  0  0  0  0
    1.7605    8.6625    0.0000 C   0  0  0  0  0  0  0  0  0  0  0  0
    0.1105    8.6625    0.0000 C   0  0  0  0  0  0  0  0  0  0  0  0
    1.6500    7.4250    0.0000 C   0  0  0  0  0  0  0  0  0  0  0  0
    1.6500    6.6000    0.0000 C   0  0  0  0  0  0  0  0  0  0  0  0
    0.2211    4.9500    0.0000 O   0  0  0  0  0  0  0  0  0  0  0  0
    3.0789    2.4750    0.0000 C   0  0  0  0  0  0  0  0  0  0  0  0
    3.0789    1.6500    0.0000 C   0  0  0  0  0  0  0  0  0  0  0  0
    3.1895    0.4125    0.0000 C   0  0  0  0  0  0  0  0  0  0  0  0
    3.6020    1.1270    0.0000 C   0  0  0  0  0  0  0  0  0  0  0  0
    4.4270    1.1270    0.0000 C   0  0  0  0  0  0  0  0  0  0  0  0
    4.8395    0.4125    0.0000 C   0  0  0  0  0  0  0  0  0  0  0  0
    4.4270   -0.3020    0.0000 C   0  0  0  0  0  0  0  0  0  0  0  0
    3.6020   -0.3020    0.0000 C   0  0  0  0  0  0  0  0  0  0  0  0
    1.5395    0.4125    0.0000 O   0  0  0  0  0  0  0  0  0  0  0  0
  1  2  2  0  0  0  0
  2  3  1  0  0  0  0
  3  4  2  0  0  0  0
  4  5  1  0  0  0  0
  5  6  2  0  0  0  0
  1  6  1  0  0  0  0
  6  7  1  0  0  0  0
  7  8  1  0  0  0  0
  8  9  1  0  0  0  0
  9 10  1  0  0  0  0
 10 11  1  0  0  0  0
 11 12  1  0  0  0  0
 12 13  1  0  0  0  0
 13 14  1  0  0  0  0
 14 15  1  0  0  0  0
 15 16  1  0  0  0  0
 16 17  2  0  0  0  0
 17 18  1  0  0  0  0
 18 19  2  0  0  0  0
 19 20  1  0  0  0  0
 20 21  1  0  0  0  0
 20 22  1  0  0  0  0
 20 23  1  0  0  0  0
 19 24  1  0  0  0  0
 24 25  2  0  0  0  0
 16 25  1  0  0  0  0
 15 26  1  0  0  0  0
 11 27  1  0  0  0  0
 27 28  1  0  0  0  0
  8 28  1  0  0  0  0
  7 29  1  0  0  0  0
 29 30  2  0  0  0  0
 30 31  1  0  0  0  0
 31 32  2  0  0  0  0
 32 33  1  0  0  0  0
 33 34  2  0  0  0  0
 29 34  1  0  0  0  0
  7 35  1  0  0  0  0
M  END
>  <Name>
Terfenadine

>  <CAS>
50679-08-8

>  <Formula>
C32H41NO2

>  <MolWt>
471.67 

>  <Bioactivity>
Terfenadine is a histamine H1-receptor antagonist, which blocks HERG and KATP (KIR6) channels. 

>  <Pathways>
Membrane Transporter/Ion Channel; Neuroscience

>  <Target>
AChR antagonist;Histamine antagonist;Potassium Channel inhibitor

>  <Receptor>
Muscarinic AChR;Histamine receptor; Potassium Channel

>  <Reference>
1. Kishimoto W, et al. Res Commun Mol Pathol Pharmacol. 1997 Dec;98(3):273-92. 

$$$$
164656-23-9
  Mrv1561503291623562D          

 37 41  0  0  1  0            999 V2000
    0.7475   -2.9779    0.0000 C   0  0  1  0  0  0  0  0  0  0  0  0
    1.5596   -2.8327    0.0000 C   0  0  1  0  0  0  0  0  0  0  0  0
    2.0914   -3.4634    0.0000 C   0  0  0  0  0  0  0  0  0  0  0  0
    2.9035   -3.3182    0.0000 C   0  0  2  0  0  0  0  0  0  0  0  0
    3.1838   -2.5422    0.0000 C   0  0  2  0  0  0  0  0  0  0  0  0
    3.9960   -2.3970    0.0000 N   0  0  0  0  0  0  0  0  0  0  0  0
    4.5278   -3.0277    0.0000 C   0  0  0  0  0  0  0  0  0  0  0  0
    5.3399   -2.8825    0.0000 O   0  0  0  0  0  0  0  0  0  0  0  0
    4.2475   -3.8037    0.0000 C   0  0  0  0  0  0  0  0  0  0  0  0
    3.4354   -3.9489    0.0000 C   0  0  0  0  0  0  0  0  0  0  0  0
    2.6520   -1.9115    0.0000 C   0  0  0  0  0  0  0  0  0  0  0  0
    1.8399   -2.0567    0.0000 C   0  0  0  0  0  0  0  0  0  0  0  0
    2.6232   -4.0941    0.0000 C   0  0  0  0  0  0  0  0  0  0  0  0
    1.8111   -4.2393    0.0000 C   0  0  0  0  0  0  0  0  0  0  0  0
    0.9990   -4.3845    0.0000 C   0  0  0  0  0  0  0  0  0  0  0  0
    0.4672   -3.7538    0.0000 C   0  0  2  0  0  0  0  0  0  0  0  0
   -0.3574   -3.7270    0.0000 C   0  0  2  0  0  0  0  0  0  0  0  0
   -0.5867   -2.9345    0.0000 C   0  0  0  0  0  0  0  0  0  0  0  0
    0.0962   -2.4715    0.0000 C   0  0  0  0  0  0  0  0  0  0  0  0
   -0.8637   -4.3783    0.0000 C   0  0  0  0  0  0  0  0  0  0  0  0
   -1.6810   -4.2655    0.0000 O   0  0  0  0  0  0  0  0  0  0  0  0
   -0.5528   -5.1425    0.0000 N   0  0  0  0  0  0  0  0  0  0  0  0
   -1.0592   -5.7938    0.0000 C   0  0  0  0  0  0  0  0  0  0  0  0
   -1.8764   -5.6810    0.0000 C   0  0  0  0  0  0  0  0  0  0  0  0
   -2.3828   -6.3323    0.0000 C   0  0  0  0  0  0  0  0  0  0  0  0
   -2.0719   -7.0965    0.0000 C   0  0  0  0  0  0  0  0  0  0  0  0
   -1.2547   -7.2093    0.0000 C   0  0  0  0  0  0  0  0  0  0  0  0
   -0.7483   -6.5580    0.0000 C   0  0  0  0  0  0  0  0  0  0  0  0
    0.0689   -6.6709    0.0000 C   0  0  0  0  0  0  0  0  0  0  0  0
    0.8862   -6.7837    0.0000 F   0  0  0  0  0  0  0  0  0  0  0  0
    0.1818   -5.8536    0.0000 F   0  0  0  0  0  0  0  0  0  0  0  0
   -0.0439   -7.4881    0.0000 F   0  0  0  0  0  0  0  0  0  0  0  0
   -3.2000   -6.2195    0.0000 C   0  0  0  0  0  0  0  0  0  0  0  0
   -4.0173   -6.1066    0.0000 F   0  0  0  0  0  0  0  0  0  0  0  0
   -3.3129   -7.0367    0.0000 F   0  0  0  0  0  0  0  0  0  0  0  0
   -3.0872   -5.4022    0.0000 F   0  0  0  0  0  0  0  0  0  0  0  0
    0.1073   -4.4962    0.0000 C   0  0  0  0  0  0  0  0  0  0  0  0
  1  2  1  0  0  0  0
  2  3  1  0  0  0  0
  3  4  1  0  0  0  0
  4  5  1  0  0  0  0
  5  6  1  1  0  0  0
  6  7  1  0  0  0  0
  7  8  2  0  0  0  0
  7  9  1  0  0  0  0
  9 10  2  0  0  0  0
  4 10  1  0  0  0  0
  5 11  1  0  0  0  0
 11 12  1  0  0  0  0
  2 12  1  6  0  0  0
  4 13  1  1  0  0  0
  3 14  1  0  0  0  0
 14 15  1  0  0  0  0
 15 16  1  0  0  0  0
  1 16  1  0  0  0  0
 16 17  1  0  0  0  0
 17 18  1  0  0  0  0
 18 19  1  0  0  0  0
  1 19  1  1  0  0  0
 17 20  1  1  0  0  0
 20 21  2  0  0  0  0
 20 22  1  0  0  0  0
 22 23  1  0  0  0  0
 23 24  2  0  0  0  0
 24 25  1  0  0  0  0
 25 26  2  0  0  0  0
 26 27  1  0  0  0  0
 27 28  2  0  0  0  0
 23 28  1  0  0  0  0
 28 29  1  0  0  0  0
 29 30  1  0  0  0  0
 29 31  1  0  0  0  0
 29 32  1  0  0  0  0
 25 33  1  0  0  0  0
 33 34  1  0  0  0  0
 33 35  1  0  0  0  0
 33 36  1  0  0  0  0
 16 37  1  1  0  0  0
M  END
>  <Name>
Dutasteride

>  <CAS>
164656-23-9

>  <Formula>
C27H30F6N2O2

>  <MolWt>
528.53 

>  <Bioactivity>
Dutasteride belongs to a class of drugs called 5-alpha-reductase inhibitors, which block the action of the 5-alpha-reductase enzymes that convert testosterone into dihydrotestosterone (DHT). Finasteride also belongs to this group, but while dutasteride inhibits both isoforms of 5-alpha reductase, finasteride inhibits only one. Even so, a clinical study done by GlaxoSmithKline, the EPICS trial, did not find dutasteride to be more effective than finasteride in treating BPH. 


>  <Pathways>
Enzyme

>  <Target>
Reductase inhibitor

>  <Receptor>
5-? Reductase

>  <Reference>
1. Aggarwal S, et al. Steroids. 2010 Feb; 75(2):109-53. 

$$$$
3092-17-9
  Mrv1561503291623562D          

 20 18  0  0  0  0            999 V2000
    0.4125    0.0000    0.0000 H   0  3  0  0  0  0  0  0  0  0  0  0
    4.9131   -0.5500    0.0000 C   0  0  0  0  0  0  0  0  0  0  0  0
    4.1986   -0.1375    0.0000 C   0  0  0  0  0  0  0  0  0  0  0  0
    3.4841   -0.5500    0.0000 O   0  0  0  0  0  0  0  0  0  0  0  0
    2.7696   -0.1375    0.0000 C   0  0  0  0  0  0  0  0  0  0  0  0
    4.1986    0.6875    0.0000 C   0  0  0  0  0  0  0  0  0  0  0  0
    4.9131    1.1000    0.0000 C   0  0  0  0  0  0  0  0  0  0  0  0
    5.6275    0.6875    0.0000 C   0  0  0  0  0  0  0  0  0  0  0  0
    5.6275   -0.1375    0.0000 C   0  0  0  0  0  0  0  0  0  0  0  0
    6.3420   -0.5500    0.0000 C   0  0  0  0  0  0  0  0  0  0  0  0
    6.3420   -1.3750    0.0000 O   0  0  0  0  0  0  0  0  0  0  0  0
    7.0565   -0.1375    0.0000 C   0  0  0  0  0  0  0  0  0  0  0  0
    7.7709   -0.5500    0.0000 N   0  0  0  0  0  0  0  0  0  0  0  0
    8.4854   -0.1375    0.0000 C   0  0  0  0  0  0  0  0  0  0  0  0
    8.4854    0.6875    0.0000 O   0  0  0  0  0  0  0  0  0  0  0  0
    9.1999   -0.5500    0.0000 C   0  0  0  0  0  0  0  0  0  0  0  0
    9.9144   -0.1375    0.0000 N   0  0  0  0  0  0  0  0  0  0  0  0
    6.3420    1.1000    0.0000 O   0  0  0  0  0  0  0  0  0  0  0  0
    7.0565    0.6875    0.0000 C   0  0  0  0  0  0  0  0  0  0  0  0
   -0.4125    0.0000    0.0000 Cl  0  5  0  0  0  0  0  0  0  0  0  0
  2  3  2  0  0  0  0
  3  4  1  0  0  0  0
  4  5  1  0  0  0  0
  3  6  1  0  0  0  0
  6  7  2  0  0  0  0
  7  8  1  0  0  0  0
  8  9  2  0  0  0  0
  2  9  1  0  0  0  0
  9 10  1  0  0  0  0
 10 11  1  0  0  0  0
 10 12  1  0  0  0  0
 12 13  1  0  0  0  0
 13 14  1  0  0  0  0
 14 15  2  0  0  0  0
 14 16  1  0  0  0  0
 16 17  1  0  0  0  0
  8 18  1  0  0  0  0
 18 19  1  0  0  0  0
M  CHG  2   1   1  20  -1
M  END
>  <Name>
Midodrine HCl

>  <CAS>
3092-17-9

>  <Formula>
C12H19ClN2O4

>  <MolWt>
290.74 

>  <Bioactivity>
An ethanolamine derivative that is an adrenergic alpha-1 agonist. It is used as a vasoconstrictor agent in the treatment of HYPOTENSION.

>  <Pathways>
GPCR/G Protein

>  <Target>
Adrenergic Receptor agonist

>  <Receptor>
?-adrenergic receptor

>  <Reference>
1. Buckner SA, et al. Eur J Pharmacol. 2002 Aug 2;449(1-2):159-65. 

$$$$
T0078
  Mrv1561503291623562D          

 40 44  0  0  0  0            999 V2000
    1.4289   -0.0000    0.0000 C   0  0  0  0  0  0  0  0  0  0  0  0
    2.1434   -0.4125    0.0000 C   0  0  0  0  0  0  0  0  0  0  0  0
    2.8579   -0.0000    0.0000 C   0  0  0  0  0  0  0  0  0  0  0  0
    3.5724   -0.4125    0.0000 N   0  0  0  0  0  0  0  0  0  0  0  0
    3.5724   -1.2375    0.0000 C   0  0  0  0  0  0  0  0  0  0  0  0
    2.8579   -1.6500    0.0000 N   0  0  0  0  0  0  0  0  0  0  0  0
    2.1434   -1.2375    0.0000 C   0  0  0  0  0  0  0  0  0  0  0  0
    1.4289   -1.6500    0.0000 C   0  0  0  0  0  0  0  0  0  0  0  0
    0.7145   -1.2375    0.0000 C   0  0  0  0  0  0  0  0  0  0  0  0
    0.7145   -0.4125    0.0000 C   0  0  0  0  0  0  0  0  0  0  0  0
   -0.0000    0.0000    0.0000 C   0  0  0  0  0  0  0  0  0  0  0  0
   -0.7537   -0.3356    0.0000 C   0  0  0  0  0  0  0  0  0  0  0  0
   -1.3057    0.2775    0.0000 C   0  0  0  0  0  0  0  0  0  0  0  0
   -0.8932    0.9920    0.0000 C   0  0  0  0  0  0  0  0  0  0  0  0
   -0.0862    0.8205    0.0000 O   0  0  0  0  0  0  0  0  0  0  0  0
   -1.2288    1.7457    0.0000 C   0  0  0  0  0  0  0  0  0  0  0  0
   -2.0492    1.8319    0.0000 N   0  0  0  0  0  0  0  0  0  0  0  0
   -2.3848    2.5856    0.0000 C   0  0  0  0  0  0  0  0  0  0  0  0
   -3.2053    2.6718    0.0000 C   0  0  0  0  0  0  0  0  0  0  0  0
   -3.5408    3.4255    0.0000 S   0  0  0  0  0  0  0  0  0  0  0  0
   -3.8764    4.1792    0.0000 O   0  0  0  0  0  0  0  0  0  0  0  0
   -4.2945    3.0899    0.0000 O   0  0  0  0  0  0  0  0  0  0  0  0
   -2.7872    3.7611    0.0000 C   0  0  0  0  0  0  0  0  0  0  0  0
    2.8579    0.8250    0.0000 N   0  0  0  0  0  0  0  0  0  0  0  0
    3.5724    1.2375    0.0000 C   0  0  0  0  0  0  0  0  0  0  0  0
    3.5724    2.0625    0.0000 C   0  0  0  0  0  0  0  0  0  0  0  0
    4.2868    2.4750    0.0000 C   0  0  0  0  0  0  0  0  0  0  0  0
    5.0013    2.0625    0.0000 C   0  0  0  0  0  0  0  0  0  0  0  0
    5.0013    1.2375    0.0000 C   0  0  0  0  0  0  0  0  0  0  0  0
    4.2868    0.8250    0.0000 C   0  0  0  0  0  0  0  0  0  0  0  0
    5.7158    0.8250    0.0000 Cl  0  0  0  0  0  0  0  0  0  0  0  0
    5.7158    2.4750    0.0000 O   0  0  0  0  0  0  0  0  0  0  0  0
    5.7158    3.3000    0.0000 C   0  0  0  0  0  0  0  0  0  0  0  0
    6.4302    3.7125    0.0000 C   0  0  0  0  0  0  0  0  0  0  0  0
    6.4302    4.5375    0.0000 C   0  0  0  0  0  0  0  0  0  0  0  0
    7.1447    4.9500    0.0000 C   0  0  0  0  0  0  0  0  0  0  0  0
    7.8592    4.5375    0.0000 C   0  0  0  0  0  0  0  0  0  0  0  0
    7.8592    3.7125    0.0000 C   0  0  0  0  0  0  0  0  0  0  0  0
    7.1447    3.3000    0.0000 C   0  0  0  0  0  0  0  0  0  0  0  0
    8.5737    3.3000    0.0000 F   0  0  0  0  0  0  0  0  0  0  0  0
  1  2  2  0  0  0  0
  2  3  1  0  0  0  0
  3  4  2  0  0  0  0
  4  5  1  0  0  0  0
  5  6  2  0  0  0  0
  6  7  1  0  0  0  0
  2  7  1  0  0  0  0
  7  8  2  0  0  0  0
  8  9  1  0  0  0  0
  9 10  2  0  0  0  0
  1 10  1  0  0  0  0
 10 11  1  0  0  0  0
 11 12  2  0  0  0  0
 12 13  1  0  0  0  0
 13 14  2  0  0  0  0
 14 15  1  0  0  0  0
 11 15  1  0  0  0  0
 14 16  1  0  0  0  0
 16 17  1  0  0  0  0
 17 18  1  0  0  0  0
 18 19  1  0  0  0  0
 19 20  1  0  0  0  0
 20 21  2  0  0  0  0
 20 22  2  0  0  0  0
 20 23  1  0  0  0  0
  3 24  1  0  0  0  0
 24 25  1  0  0  0  0
 25 26  2  0  0  0  0
 26 27  1  0  0  0  0
 27 28  2  0  0  0  0
 28 29  1  0  0  0  0
 29 30  2  0  0  0  0
 25 30  1  0  0  0  0
 29 31  1  0  0  0  0
 28 32  1  0  0  0  0
 32 33  1  0  0  0  0
 33 34  1  0  0  0  0
 34 35  2  0  0  0  0
 35 36  1  0  0  0  0
 36 37  2  0  0  0  0
 37 38  1  0  0  0  0
 38 39  2  0  0  0  0
 34 39  1  0  0  0  0
 38 40  1  0  0  0  0
M  END
>  <Name>
Lapatinib

>  <CAS>
231277-92-2

>  <Formula>
C29H26ClFN4O4S

>  <MolWt>
581.06 

>  <Bioactivity>
Lapatinib is an anti-cancer drug developed by GlaxoSmithKline (GSK) as a treatment for solid tumours such as breast and lung cancer. It was approved by the FDA on March 13, 2007, for use in patients with advanced metastatic breast cancer in conjunction with the chemotherapy drug Capecitabine. Lapatinib is human epidermal growth factor receptor type 2 (HER2/ERBB2) and epidermal growth factor receptor (HER1/EGFR/ERBB1) tyrosine kinases inhibitor. It binds to the intracellular phosphorylation domain to prevent receptor autophosphorylation upon ligand binding. 

>  <Pathways>
Tyrosine Kinase/Adaptors; JAK/STAT Signaling 

>  <Target>
EGFR inhibitor; HER2 inhibitor

>  <Receptor>
EGFR, ErbB2

>  <Reference>
1. Rusnak DW, et al. Mol Cancer Ther, 2001, 1(2), 85-94.

$$$$
T1038
  Mrv1561503291623562D          

 20 22  0  0  1  0            999 V2000
   -0.3984   -2.1500    0.0000 C   0  0  2  0  0  0  0  0  0  0  0  0
   -0.1435   -1.3654    0.0000 N   0  0  0  0  0  0  0  0  0  0  0  0
    0.6411   -1.1104    0.0000 C   0  0  0  0  0  0  0  0  0  0  0  0
    0.6411   -0.2854    0.0000 C   0  0  0  0  0  0  0  0  0  0  0  0
   -0.1435   -0.0305    0.0000 N   0  0  0  0  0  0  0  0  0  0  0  0
   -0.6284   -0.6979    0.0000 C   0  0  0  0  0  0  0  0  0  0  0  0
    1.3556    0.1271    0.0000 C   0  0  0  0  0  0  0  0  0  0  0  0
    2.0701   -0.2854    0.0000 N   0  0  0  0  0  0  0  0  0  0  0  0
    2.0701   -1.1104    0.0000 C   0  0  0  0  0  0  0  0  0  0  0  0
    1.3556   -1.5229    0.0000 N   0  0  0  0  0  0  0  0  0  0  0  0
    2.7845   -1.5229    0.0000 F   0  0  0  0  0  0  0  0  0  0  0  0
    1.3556    0.9521    0.0000 N   0  0  0  0  0  0  0  0  0  0  0  0
    0.0865   -2.8174    0.0000 O   0  0  0  0  0  0  0  0  0  0  0  0
   -0.3984   -3.4849    0.0000 C   0  0  2  0  0  0  0  0  0  0  0  0
   -0.1435   -4.2695    0.0000 C   0  0  0  0  0  0  0  0  0  0  0  0
    0.6635   -4.4410    0.0000 O   0  0  0  0  0  0  0  0  0  0  0  0
   -1.1831   -3.2299    0.0000 C   0  0  2  0  0  0  0  0  0  0  0  0
   -1.1831   -2.4049    0.0000 C   0  0  2  0  0  0  0  0  0  0  0  0
   -1.8505   -1.9200    0.0000 O   0  0  0  0  0  0  0  0  0  0  0  0
   -1.8505   -3.7149    0.0000 O   0  0  0  0  0  0  0  0  0  0  0  0
  1  2  1  6  0  0  0
  2  3  1  0  0  0  0
  3  4  2  0  0  0  0
  4  5  1  0  0  0  0
  5  6  2  0  0  0  0
  2  6  1  0  0  0  0
  4  7  1  0  0  0  0
  7  8  2  0  0  0  0
  8  9  1  0  0  0  0
  9 10  2  0  0  0  0
  3 10  1  0  0  0  0
  9 11  1  0  0  0  0
  7 12  1  0  0  0  0
  1 13  1  0  0  0  0
 13 14  1  0  0  0  0
 14 15  1  6  0  0  0
 15 16  1  0  0  0  0
 14 17  1  0  0  0  0
 17 18  1  0  0  0  0
  1 18  1  0  0  0  0
 18 19  1  6  0  0  0
 17 20  1  1  0  0  0
M  END
>  <Name>
Fludarabine

>  <CAS>
21679-14-1

>  <Formula>
C10H12FN5O4

>  <MolWt>
285.23 

>  <Bioactivity>
Purine analog that inhibits DNA synthesis. Exhibits antiproliferative activity and triggers apoptosis through increasing Bax and decreasing Bid, XIAP and survivin expression.

>  <Pathways>
DNA Damage/DNA Repair;JAK/STAT Signaling

>  <Target>
DNA synthesis inhibitor;STAT inhibitor

>  <Receptor>
DNA Synthsis ;STAT1

>  <Reference>
1. Fernández-Calotti P, et al. Int Immunopharmacol. 2006, 6(5), 715-72

$$$$
23076-35-9
  Mrv1561503291623562D          

 17 16  0  0  0  0            999 V2000
    0.4125    0.0000    0.0000 H   0  3  0  0  0  0  0  0  0  0  0  0
    5.6275   -0.6875    0.0000 C   0  0  0  0  0  0  0  0  0  0  0  0
    5.6275   -1.5125    0.0000 C   0  0  0  0  0  0  0  0  0  0  0  0
    4.9131   -1.9250    0.0000 C   0  0  0  0  0  0  0  0  0  0  0  0
    4.1986   -1.5125    0.0000 C   0  0  0  0  0  0  0  0  0  0  0  0
    4.1986   -0.6875    0.0000 C   0  0  0  0  0  0  0  0  0  0  0  0
    4.9131   -0.2750    0.0000 C   0  0  0  0  0  0  0  0  0  0  0  0
    4.9131    0.5500    0.0000 C   0  0  0  0  0  0  0  0  0  0  0  0
    3.4841   -0.2750    0.0000 N   0  0  0  0  0  0  0  0  0  0  0  0
    3.4841    0.5500    0.0000 C   0  0  0  0  0  0  0  0  0  0  0  0
    2.7696    0.9625    0.0000 N   0  0  0  0  0  0  0  0  0  0  0  0
    2.7696    1.7875    0.0000 C   0  0  0  0  0  0  0  0  0  0  0  0
    3.4841    2.2000    0.0000 C   0  0  0  0  0  0  0  0  0  0  0  0
    4.1986    1.7875    0.0000 C   0  0  0  0  0  0  0  0  0  0  0  0
    4.1986    0.9625    0.0000 S   0  0  0  0  0  0  0  0  0  0  0  0
    3.4841   -1.9250    0.0000 C   0  0  0  0  0  0  0  0  0  0  0  0
   -0.4125    0.0000    0.0000 Cl  0  5  0  0  0  0  0  0  0  0  0  0
  2  3  2  0  0  0  0
  3  4  1  0  0  0  0
  4  5  2  0  0  0  0
  5  6  1  0  0  0  0
  6  7  2  0  0  0  0
  2  7  1  0  0  0  0
  7  8  1  0  0  0  0
  6  9  1  0  0  0  0
  9 10  1  0  0  0  0
 10 11  2  0  0  0  0
 11 12  1  0  0  0  0
 12 13  1  0  0  0  0
 13 14  1  0  0  0  0
 14 15  1  0  0  0  0
 10 15  1  0  0  0  0
  5 16  1  0  0  0  0
M  CHG  2   1   1  17  -1
M  END
>  <Name>
Xylazine HCl

>  <CAS>
23076-35-9

>  <Formula>
C12H16N2S.HCl

>  <MolWt>
256.79 

>  <Bioactivity>
An adrenergic alpha-2 agonist used as a sedative, analgesic and centrally acting muscle relaxant in VETERINARY MEDICINE. 

>  <Pathways>
GPCR/G Protein

>  <Target>
Adrenergic Receptor agonist

>  <Receptor>
?-adrenergic receptor

>  <Reference>
1. Ambrisko TD, et al. Can J Vet Res,2002, 66(1), 42-49.

$$$$
T1508
  Mrv1561503291623562D          

 16 17  0  0  0  0            999 V2000
    0.7145   -0.4125    0.0000 C   0  0  0  0  0  0  0  0  0  0  0  0
    0.7145   -1.2375    0.0000 C   0  0  0  0  0  0  0  0  0  0  0  0
    1.3819   -1.7224    0.0000 O   0  0  0  0  0  0  0  0  0  0  0  0
    1.1270   -2.5070    0.0000 C   0  0  0  0  0  0  0  0  0  0  0  0
    1.6119   -3.1745    0.0000 N   0  0  0  0  0  0  0  0  0  0  0  0
    2.4324   -3.0882    0.0000 C   0  0  0  0  0  0  0  0  0  0  0  0
    2.9173   -3.7557    0.0000 N   0  0  0  0  0  0  0  0  0  0  0  0
    2.5817   -4.5094    0.0000 C   0  0  0  0  0  0  0  0  0  0  0  0
    3.0667   -5.1768    0.0000 N   0  0  0  0  0  0  0  0  0  0  0  0
    1.7613   -4.5956    0.0000 N   0  0  0  0  0  0  0  0  0  0  0  0
    1.2763   -3.9282    0.0000 C   0  0  0  0  0  0  0  0  0  0  0  0
    2.7679   -2.3346    0.0000 O   0  0  0  0  0  0  0  0  0  0  0  0
    0.3020   -2.5070    0.0000 C   0  0  0  0  0  0  0  0  0  0  0  0
    0.0470   -1.7224    0.0000 C   0  0  0  0  0  0  0  0  0  0  0  0
   -0.7376   -1.4675    0.0000 O   0  0  0  0  0  0  0  0  0  0  0  0
   -0.0000    0.0000    0.0000 O   0  0  0  0  0  0  0  0  0  0  0  0
  1  2  1  0  0  0  0
  2  3  1  0  0  0  0
  3  4  1  0  0  0  0
  4  5  1  0  0  0  0
  5  6  1  0  0  0  0
  6  7  1  0  0  0  0
  7  8  2  0  0  0  0
  8  9  1  0  0  0  0
  8 10  1  0  0  0  0
 10 11  2  0  0  0  0
  5 11  1  0  0  0  0
  6 12  2  0  0  0  0
  4 13  1  0  0  0  0
 13 14  1  0  0  0  0
  2 14  1  0  0  0  0
 14 15  1  0  0  0  0
  1 16  1  0  0  0  0
M  END
>  <Name>
Dacogen

>  <CAS>
2353-33-5

>  <Formula>
C8H12N4O4

>  <MolWt>
228.21 

>  <Bioactivity>
Decitabine is indicated for treatment of patients with myelodysplastic syndrome (MDS). It is a chemical analogue of cytidine, a nucleoside present in DNA and RNA. Cells in the presence of Decitabine incorporate it into DNA during replication and RNA during transcription. The incorporation of Decitabine into DNA or RNA inhibits methyltransferase thereby causing demethylation in that sequence. This adversely affects the way that cell regulatory proteins are able to bind to the DNA/RNA substrate.


>  <Pathways>
Chromatin/Epigenetic

>  <Target>
DNA Methyltransferase inhibitor

>  <Receptor>
DNA Methyltransferase

>  <Reference>
1. Shaker S, et al. Leuk Res, 2003, 27(5), 437-444.

$$$$
93957-55-2
  Mrv1561503291623562D          

 31 32  0  0  1  0            999 V2000
   -2.2295   -3.8616    0.0000 C   0  0  0  0  0  0  0  0  0  0  0  0
   -2.2295   -4.6866    0.0000 O   0  0  0  0  0  0  0  0  0  0  0  0
   -2.9440   -3.4491    0.0000 C   0  0  0  0  0  0  0  0  0  0  0  0
   -2.9440   -2.6241    0.0000 C   0  0  0  0  0  0  0  0  0  0  0  0
   -3.6584   -2.2116    0.0000 C   0  0  0  0  0  0  0  0  0  0  0  0
   -3.7447   -1.3911    0.0000 C   0  0  0  0  0  0  0  0  0  0  0  0
   -4.5517   -1.2196    0.0000 C   0  0  0  0  0  0  0  0  0  0  0  0
   -4.9642   -1.9341    0.0000 C   0  0  0  0  0  0  0  0  0  0  0  0
   -4.4121   -2.5472    0.0000 N   0  0  0  0  0  0  0  0  0  0  0  0
   -4.5837   -3.3542    0.0000 C   0  0  0  0  0  0  0  0  0  0  0  0
   -3.9706   -3.9062    0.0000 C   0  0  0  0  0  0  0  0  0  0  0  0
   -5.3683   -3.6091    0.0000 C   0  0  0  0  0  0  0  0  0  0  0  0
   -5.7892   -1.9341    0.0000 C   0  0  0  0  0  0  0  0  0  0  0  0
   -6.2017   -1.2196    0.0000 C   0  0  0  0  0  0  0  0  0  0  0  0
   -5.7892   -0.5051    0.0000 C   0  0  0  0  0  0  0  0  0  0  0  0
   -4.9642   -0.5051    0.0000 C   0  0  0  0  0  0  0  0  0  0  0  0
   -3.1316   -0.8391    0.0000 C   0  0  0  0  0  0  0  0  0  0  0  0
   -3.3031   -0.0321    0.0000 C   0  0  0  0  0  0  0  0  0  0  0  0
   -2.6900    0.5199    0.0000 C   0  0  0  0  0  0  0  0  0  0  0  0
   -1.9054    0.2650    0.0000 C   0  0  0  0  0  0  0  0  0  0  0  0
   -1.2923    0.8170    0.0000 F   0  0  0  0  0  0  0  0  0  0  0  0
   -1.7339   -0.5420    0.0000 C   0  0  0  0  0  0  0  0  0  0  0  0
   -2.3470   -1.0940    0.0000 C   0  0  0  0  0  0  0  0  0  0  0  0
   -1.5150   -3.4491    0.0000 C   0  0  0  0  0  0  0  0  0  0  0  0
   -0.8006   -3.8616    0.0000 C   0  0  0  0  0  0  0  0  0  0  0  0
   -0.8006   -4.6866    0.0000 O   0  0  0  0  0  0  0  0  0  0  0  0
   -0.0861   -3.4491    0.0000 C   0  0  0  0  0  0  0  0  0  0  0  0
    0.6284   -3.8616    0.0000 C   0  0  0  0  0  0  0  0  0  0  0  0
    1.3428   -3.4491    0.0000 O   0  5  0  0  0  0  0  0  0  0  0  0
    0.6284   -4.6866    0.0000 O   0  0  0  0  0  0  0  0  0  0  0  0
    2.0573   -3.0366    0.0000 Na  0  3  0  0  0  0  0  0  0  0  0  0
  1  2  1  0  0  0  0
  1  3  1  0  0  0  0
  3  4  2  0  0  0  0
  4  5  1  0  0  0  0
  5  6  2  0  0  0  0
  6  7  1  0  0  0  0
  7  8  2  0  0  0  0
  8  9  1  0  0  0  0
  5  9  1  0  0  0  0
  9 10  1  0  0  0  0
 10 11  1  0  0  0  0
 10 12  1  0  0  0  0
  8 13  1  0  0  0  0
 13 14  2  0  0  0  0
 14 15  1  0  0  0  0
 15 16  2  0  0  0  0
  7 16  1  0  0  0  0
  6 17  1  0  0  0  0
 17 18  2  0  0  0  0
 18 19  1  0  0  0  0
 19 20  2  0  0  0  0
 20 21  1  0  0  0  0
 20 22  1  0  0  0  0
 22 23  2  0  0  0  0
 17 23  1  0  0  0  0
  1 24  1  0  0  0  0
 24 25  1  0  0  0  0
 25 26  1  0  0  0  0
 25 27  1  0  0  0  0
 27 28  1  0  0  0  0
 28 29  1  0  0  0  0
 28 30  2  0  0  0  0
M  CHG  2  29  -1  31   1
M  END
>  <Name>
Fluvastatin sodium salt

>  <CAS>
93957-55-2

>  <Formula>
C24H25FNNaO4

>  <MolWt>
433.45 

>  <Bioactivity>
Fluvastatin sodium is an inhibitor of 3-hydroxy-3-methylglutaryl coenzyme A (HMG-CoA) reductase. Fluvastatin is a drug used to treat patients with hypercholesterolaemia. It lowers serum total cholesterol (TC) and low density lipoprotein cholesterol (LDL-C) as well as the serum apolipoprotein B. It also increases high density lipoprotein cholesterol (HDL-C) levels and apolipoprotein A-I levels. In addition to these, fluvastatin has antiatherogenic, antithrombotic and antioxidant effects. 

>  <Pathways>
Metabolism

>  <Target>
HMG-CoA Reductase inhibitor

>  <Receptor>
HMG-CoA Reductase

>  <Reference>
1. Dansette PM, et al. Exp Toxicol Pathol, 2000, 52(2), 145-148.

$$$$
T1715
  Mrv1561503291623562D          

104112  0  0  1  0            999 V2000
  -12.1460  -16.0875    0.0000 C   0  0  2  0  0  0  0  0  0  0  0  0
  -12.1460  -15.2625    0.0000 O   0  0  0  0  0  0  0  0  0  0  0  0
  -12.8605  -16.5000    0.0000 O   0  0  0  0  0  0  0  0  0  0  0  0
  -12.8605  -17.3250    0.0000 C   0  0  1  0  0  0  0  0  0  0  0  0
  -12.1460  -17.7375    0.0000 C   0  0  1  0  0  0  0  0  0  0  0  0
  -12.1460  -18.5625    0.0000 O   0  0  0  0  0  0  0  0  0  0  0  0
  -11.4315  -18.9750    0.0000 C   0  0  2  0  0  0  0  0  0  0  0  0
  -10.7171  -18.5625    0.0000 O   0  0  0  0  0  0  0  0  0  0  0  0
  -10.0026  -18.9750    0.0000 C   0  0  1  0  0  0  0  0  0  0  0  0
  -10.0026  -19.8000    0.0000 C   0  0  1  0  0  0  0  0  0  0  0  0
   -9.2881  -20.2125    0.0000 O   0  0  0  0  0  0  0  0  0  0  0  0
   -8.5737  -19.8000    0.0000 C   0  0  2  0  0  0  0  0  0  0  0  0
   -8.5737  -18.9750    0.0000 O   0  0  0  0  0  0  0  0  0  0  0  0
   -7.8592  -18.5625    0.0000 C   0  0  1  0  0  0  0  0  0  0  0  0
   -7.1447  -18.9750    0.0000 C   0  0  1  0  0  0  0  0  0  0  0  0
   -6.4302  -18.5625    0.0000 O   0  0  0  0  0  0  0  0  0  0  0  0
   -5.7158  -18.9750    0.0000 C   0  0  2  0  0  0  0  0  0  0  0  0
   -5.7158  -19.8000    0.0000 O   0  0  0  0  0  0  0  0  0  0  0  0
   -5.0013  -20.2125    0.0000 C   0  0  1  0  0  0  0  0  0  0  0  0
   -4.2868  -19.8000    0.0000 C   0  0  1  0  0  0  0  0  0  0  0  0
   -3.5724  -20.2125    0.0000 O   0  0  0  0  0  0  0  0  0  0  0  0
   -2.8579  -19.8000    0.0000 C   0  0  2  0  0  0  0  0  0  0  0  0
   -2.8579  -18.9750    0.0000 O   0  0  0  0  0  0  0  0  0  0  0  0
   -2.1434  -18.5625    0.0000 C   0  0  1  0  0  0  0  0  0  0  0  0
   -1.4289  -18.9750    0.0000 C   0  0  1  0  0  0  0  0  0  0  0  0
   -0.7145  -18.5625    0.0000 O   0  0  0  0  0  0  0  0  0  0  0  0
   -0.0000  -18.9750    0.0000 C   0  0  2  0  0  0  0  0  0  0  0  0
   -0.0000  -19.8000    0.0000 O   0  0  0  0  0  0  0  0  0  0  0  0
    0.7145  -20.2125    0.0000 C   0  0  1  0  0  0  0  0  0  0  0  0
    1.4289  -19.8000    0.0000 C   0  0  1  0  0  0  0  0  0  0  0  0
    2.1434  -20.2125    0.0000 O   0  0  0  0  0  0  0  0  0  0  0  0
    2.8579  -19.8000    0.0000 C   0  0  2  0  0  0  0  0  0  0  0  0
    2.8579  -18.9750    0.0000 O   0  0  0  0  0  0  0  0  0  0  0  0
    3.5724  -18.5625    0.0000 C   0  0  1  0  0  0  0  0  0  0  0  0
    4.2868  -18.9750    0.0000 C   0  0  1  0  0  0  0  0  0  0  0  0
    5.0013  -18.5625    0.0000 O   0  0  0  0  0  0  0  0  0  0  0  0
    5.7158  -18.9750    0.0000 C   0  0  2  0  0  0  0  0  0  0  0  0
    5.7158  -19.8000    0.0000 O   0  0  0  0  0  0  0  0  0  0  0  0
    6.4302  -20.2125    0.0000 C   0  0  1  0  0  0  0  0  0  0  0  0
    7.1447  -19.8000    0.0000 C   0  0  1  0  0  0  0  0  0  0  0  0
    7.8592  -20.2125    0.0000 O   0  0  0  0  0  0  0  0  0  0  0  0
    8.5737  -19.8000    0.0000 C   0  0  2  0  0  0  0  0  0  0  0  0
    8.5737  -18.9750    0.0000 O   0  0  0  0  0  0  0  0  0  0  0  0
    9.2881  -18.5625    0.0000 C   0  0  1  0  0  0  0  0  0  0  0  0
   10.0026  -18.9750    0.0000 C   0  0  1  0  0  0  0  0  0  0  0  0
   10.7171  -18.5625    0.0000 O   0  0  0  0  0  0  0  0  0  0  0  0
   10.0026  -19.8000    0.0000 C   0  0  2  0  0  0  0  0  0  0  0  0
   10.7171  -20.2125    0.0000 O   0  0  0  0  0  0  0  0  0  0  0  0
    9.2881  -20.2125    0.0000 C   0  0  1  0  0  0  0  0  0  0  0  0
    9.2881  -21.0375    0.0000 N   0  0  0  0  0  0  0  0  0  0  0  0
    9.2881  -17.7375    0.0000 C   0  0  0  0  0  0  0  0  0  0  0  0
   10.0026  -17.3250    0.0000 O   0  0  0  0  0  0  0  0  0  0  0  0
    7.1447  -18.9750    0.0000 C   0  0  2  0  0  0  0  0  0  0  0  0
    7.8592  -18.5625    0.0000 O   0  0  0  0  0  0  0  0  0  0  0  0
    6.4302  -18.5625    0.0000 C   0  0  1  0  0  0  0  0  0  0  0  0
    6.4302  -17.7375    0.0000 N   0  0  0  0  0  0  0  0  0  0  0  0
    6.4302  -21.0375    0.0000 C   0  0  0  0  0  0  0  0  0  0  0  0
    7.1447  -21.4500    0.0000 O   0  0  0  0  0  0  0  0  0  0  0  0
    4.2868  -19.8000    0.0000 C   0  0  2  0  0  0  0  0  0  0  0  0
    5.0013  -20.2125    0.0000 O   0  0  0  0  0  0  0  0  0  0  0  0
    3.5724  -20.2125    0.0000 C   0  0  1  0  0  0  0  0  0  0  0  0
    3.5724  -21.0375    0.0000 N   0  0  0  0  0  0  0  0  0  0  0  0
    3.5724  -17.7375    0.0000 C   0  0  0  0  0  0  0  0  0  0  0  0
    2.8579  -17.3250    0.0000 O   0  0  0  0  0  0  0  0  0  0  0  0
    1.4289  -18.9750    0.0000 C   0  0  2  0  0  0  0  0  0  0  0  0
    2.1434  -18.5625    0.0000 O   0  0  0  0  0  0  0  0  0  0  0  0
    0.7145  -18.5625    0.0000 C   0  0  1  0  0  0  0  0  0  0  0  0
    0.7145  -17.7375    0.0000 N   0  0  0  0  0  0  0  0  0  0  0  0
    0.7145  -21.0375    0.0000 C   0  0  0  0  0  0  0  0  0  0  0  0
   -0.0000  -21.4500    0.0000 O   0  0  0  0  0  0  0  0  0  0  0  0
   -1.4289  -19.8000    0.0000 C   0  0  2  0  0  0  0  0  0  0  0  0
   -0.7145  -20.2125    0.0000 O   0  0  0  0  0  0  0  0  0  0  0  0
   -2.1434  -20.2125    0.0000 C   0  0  1  0  0  0  0  0  0  0  0  0
   -2.1434  -21.0375    0.0000 N   0  0  0  0  0  0  0  0  0  0  0  0
   -2.1434  -17.7375    0.0000 C   0  0  0  0  0  0  0  0  0  0  0  0
   -2.8579  -17.3250    0.0000 O   0  0  0  0  0  0  0  0  0  0  0  0
   -4.2868  -18.9750    0.0000 C   0  0  2  0  0  0  0  0  0  0  0  0
   -3.5724  -18.5625    0.0000 O   0  0  0  0  0  0  0  0  0  0  0  0
   -5.0013  -18.5625    0.0000 C   0  0  1  0  0  0  0  0  0  0  0  0
   -5.0013  -17.7375    0.0000 N   0  0  0  0  0  0  0  0  0  0  0  0
   -5.0013  -21.0375    0.0000 C   0  0  0  0  0  0  0  0  0  0  0  0
   -5.7158  -21.4500    0.0000 O   0  0  0  0  0  0  0  0  0  0  0  0
   -7.1447  -19.8000    0.0000 C   0  0  2  0  0  0  0  0  0  0  0  0
   -6.4302  -20.2125    0.0000 O   0  0  0  0  0  0  0  0  0  0  0  0
   -7.8592  -20.2125    0.0000 C   0  0  1  0  0  0  0  0  0  0  0  0
   -7.8592  -21.0375    0.0000 N   0  0  0  0  0  0  0  0  0  0  0  0
   -8.5737  -21.4500    0.0000 C   0  0  0  0  0  0  0  0  0  0  0  0
   -9.2881  -21.0375    0.0000 O   0  0  0  0  0  0  0  0  0  0  0  0
  -10.0026  -21.4500    0.0000 C   0  0  0  0  0  0  0  0  0  0  0  0
   -8.5737  -22.2750    0.0000 O   0  0  0  0  0  0  0  0  0  0  0  0
   -7.8592  -17.7375    0.0000 C   0  0  0  0  0  0  0  0  0  0  0  0
   -7.1447  -17.3250    0.0000 O   0  0  0  0  0  0  0  0  0  0  0  0
  -10.7171  -20.2125    0.0000 C   0  0  2  0  0  0  0  0  0  0  0  0
  -10.7171  -21.0375    0.0000 O   0  0  0  0  0  0  0  0  0  0  0  0
  -11.4315  -19.8000    0.0000 C   0  0  1  0  0  0  0  0  0  0  0  0
  -12.1460  -20.2125    0.0000 N   0  0  0  0  0  0  0  0  0  0  0  0
   -9.2881  -18.5625    0.0000 C   0  0  0  0  0  0  0  0  0  0  0  0
   -9.2881  -17.7375    0.0000 O   0  0  0  0  0  0  0  0  0  0  0  0
  -11.4315  -17.3250    0.0000 C   0  0  2  0  0  0  0  0  0  0  0  0
  -10.7171  -17.7375    0.0000 O   0  0  0  0  0  0  0  0  0  0  0  0
  -11.4315  -16.5000    0.0000 C   0  0  1  0  0  0  0  0  0  0  0  0
  -10.7171  -16.0875    0.0000 N   0  0  0  0  0  0  0  0  0  0  0  0
  -13.5749  -17.7375    0.0000 C   0  0  0  0  0  0  0  0  0  0  0  0
  -13.5749  -18.5625    0.0000 O   0  0  0  0  0  0  0  0  0  0  0  0
  1  2  1  1  0  0  0
  1  3  1  0  0  0  0
  3  4  1  0  0  0  0
  4  5  1  0  0  0  0
  5  6  1  6  0  0  0
  7  6  1  6  0  0  0
  7  8  1  0  0  0  0
  8  9  1  0  0  0  0
  9 10  1  0  0  0  0
 10 11  1  1  0  0  0
 12 11  1  6  0  0  0
 12 13  1  0  0  0  0
 13 14  1  0  0  0  0
 14 15  1  0  0  0  0
 15 16  1  1  0  0  0
 17 16  1  1  0  0  0
 17 18  1  0  0  0  0
 18 19  1  0  0  0  0
 19 20  1  0  0  0  0
 20 21  1  6  0  0  0
 22 21  1  6  0  0  0
 22 23  1  0  0  0  0
 23 24  1  0  0  0  0
 24 25  1  0  0  0  0
 25 26  1  1  0  0  0
 27 26  1  1  0  0  0
 27 28  1  0  0  0  0
 28 29  1  0  0  0  0
 29 30  1  0  0  0  0
 30 31  1  6  0  0  0
 32 31  1  6  0  0  0
 32 33  1  0  0  0  0
 33 34  1  0  0  0  0
 34 35  1  0  0  0  0
 35 36  1  1  0  0  0
 37 36  1  1  0  0  0
 37 38  1  0  0  0  0
 38 39  1  0  0  0  0
 39 40  1  0  0  0  0
 40 41  1  6  0  0  0
 42 41  1  6  0  0  0
 42 43  1  0  0  0  0
 43 44  1  0  0  0  0
 44 45  1  0  0  0  0
 45 46  1  1  0  0  0
 45 47  1  0  0  0  0
 47 48  1  6  0  0  0
 47 49  1  0  0  0  0
 42 49  1  0  0  0  0
 49 50  1  1  0  0  0
 44 51  1  6  0  0  0
 51 52  1  0  0  0  0
 40 53  1  0  0  0  0
 53 54  1  1  0  0  0
 53 55  1  0  0  0  0
 37 55  1  0  0  0  0
 55 56  1  6  0  0  0
 39 57  1  1  0  0  0
 57 58  1  0  0  0  0
 35 59  1  0  0  0  0
 59 60  1  6  0  0  0
 59 61  1  0  0  0  0
 32 61  1  0  0  0  0
 61 62  1  1  0  0  0
 34 63  1  6  0  0  0
 63 64  1  0  0  0  0
 30 65  1  0  0  0  0
 65 66  1  1  0  0  0
 65 67  1  0  0  0  0
 27 67  1  0  0  0  0
 67 68  1  6  0  0  0
 29 69  1  1  0  0  0
 69 70  1  0  0  0  0
 25 71  1  0  0  0  0
 71 72  1  6  0  0  0
 71 73  1  0  0  0  0
 22 73  1  0  0  0  0
 73 74  1  1  0  0  0
 24 75  1  6  0  0  0
 75 76  1  0  0  0  0
 20 77  1  0  0  0  0
 77 78  1  1  0  0  0
 77 79  1  0  0  0  0
 17 79  1  0  0  0  0
 79 80  1  6  0  0  0
 19 81  1  1  0  0  0
 81 82  1  0  0  0  0
 15 83  1  0  0  0  0
 83 84  1  6  0  0  0
 83 85  1  0  0  0  0
 12 85  1  0  0  0  0
 85 86  1  1  0  0  0
 86 87  1  0  0  0  0
 87 88  1  0  0  0  0
 88 89  1  0  0  0  0
 87 90  2  0  0  0  0
 14 91  1  6  0  0  0
 91 92  1  0  0  0  0
 10 93  1  0  0  0  0
 93 94  1  6  0  0  0
 93 95  1  0  0  0  0
  7 95  1  0  0  0  0
 95 96  1  1  0  0  0
  9 97  1  6  0  0  0
 97 98  1  0  0  0  0
  5 99  1  0  0  0  0
 99100  1  1  0  0  0
 99101  1  0  0  0  0
  1101  1  0  0  0  0
101102  1  6  0  0  0
  4103  1  1  0  0  0
103104  1  0  0  0  0
M  END
>  <Name>
Chitosan

>  <CAS>
9012-76-4

>  <Formula>
C6H11NO4X2

>  <MolWt>
161.16 

>  <Bioactivity>
Chitosan is a linear polysaccharide composed of randomly distributed ?-(1-4)-linked D-glucosamine (deacetylated unit) and N-acetyl-D-glucosamine

>  <Pathways>
Microbiology & Virology

>  <Target>
Antibacterial

>  <Receptor>
Antibacterial

>  <Reference>
1. Kean T, et al. J Control Release. 2005 Apr 18;103(3):643-53.

$$$$
553-08-2
  Mrv1561503291623562D          

 38 38  0  0  0  0            999 V2000
   -3.9392    1.9622    0.0000 C   0  0  0  0  0  0  0  0  0  0  0  0
   -3.2248    2.3747    0.0000 C   0  0  0  0  0  0  0  0  0  0  0  0
   -2.5103    1.9622    0.0000 C   0  0  0  0  0  0  0  0  0  0  0  0
   -2.5103    1.1372    0.0000 N   0  0  0  0  0  0  0  0  0  0  0  0
   -3.2248    0.7247    0.0000 C   0  0  0  0  0  0  0  0  0  0  0  0
   -3.9392    1.1372    0.0000 N   0  0  0  0  0  0  0  0  0  0  0  0
   -3.2248   -0.1003    0.0000 N   0  0  0  0  0  0  0  0  0  0  0  0
   -3.9392   -0.5128    0.0000 C   0  0  0  0  0  0  0  0  0  0  0  0
   -4.6537   -0.1003    0.0000 C   0  0  0  0  0  0  0  0  0  0  0  0
   -5.3682   -0.5128    0.0000 C   0  0  0  0  0  0  0  0  0  0  0  0
   -6.0827   -0.1003    0.0000 C   0  0  0  0  0  0  0  0  0  0  0  0
   -6.0827    0.7247    0.0000 C   0  0  0  0  0  0  0  0  0  0  0  0
   -5.3682    1.1372    0.0000 C   0  0  0  0  0  0  0  0  0  0  0  0
   -4.6537    0.7247    0.0000 C   0  0  0  0  0  0  0  0  0  0  0  0
   -6.7971    1.1372    0.0000 O   0  0  0  0  0  0  0  0  0  0  0  0
   -6.7971    1.9622    0.0000 C   0  0  0  0  0  0  0  0  0  0  0  0
   -2.5103   -0.5128    0.0000 C   0  0  0  0  0  0  0  0  0  0  0  0
   -1.7958   -0.1003    0.0000 C   0  0  0  0  0  0  0  0  0  0  0  0
   -1.0814   -0.5128    0.0000 N   0  3  0  0  0  0  0  0  0  0  0  0
   -0.3669   -0.9253    0.0000 C   0  0  0  0  0  0  0  0  0  0  0  0
    0.3476   -0.5128    0.0000 C   0  0  0  0  0  0  0  0  0  0  0  0
    1.0621   -0.9253    0.0000 C   0  0  0  0  0  0  0  0  0  0  0  0
    1.7765   -0.5128    0.0000 C   0  0  0  0  0  0  0  0  0  0  0  0
    2.4910   -0.9253    0.0000 C   0  0  0  0  0  0  0  0  0  0  0  0
    3.2055   -0.5128    0.0000 C   0  0  0  0  0  0  0  0  0  0  0  0
    3.9199   -0.9253    0.0000 C   0  0  0  0  0  0  0  0  0  0  0  0
    4.6344   -0.5128    0.0000 C   0  0  0  0  0  0  0  0  0  0  0  0
    5.3489   -0.9253    0.0000 C   0  0  0  0  0  0  0  0  0  0  0  0
    6.0633   -0.5128    0.0000 C   0  0  0  0  0  0  0  0  0  0  0  0
    6.7778   -0.9253    0.0000 C   0  0  0  0  0  0  0  0  0  0  0  0
    7.4923   -0.5128    0.0000 C   0  0  0  0  0  0  0  0  0  0  0  0
    8.2068   -0.9253    0.0000 C   0  0  0  0  0  0  0  0  0  0  0  0
    8.9212   -0.5128    0.0000 C   0  0  0  0  0  0  0  0  0  0  0  0
    9.6357   -0.9253    0.0000 C   0  0  0  0  0  0  0  0  0  0  0  0
   10.3502   -0.5128    0.0000 C   0  0  0  0  0  0  0  0  0  0  0  0
   -1.4939   -1.2273    0.0000 C   0  0  0  0  0  0  0  0  0  0  0  0
   -0.6689    0.2016    0.0000 C   0  0  0  0  0  0  0  0  0  0  0  0
   12.7073    0.0000    0.0000 Br  0  5  0  0  0  0  0  0  0  0  0  0
  1  2  2  0  0  0  0
  2  3  1  0  0  0  0
  3  4  2  0  0  0  0
  4  5  1  0  0  0  0
  5  6  2  0  0  0  0
  1  6  1  0  0  0  0
  5  7  1  0  0  0  0
  7  8  1  0  0  0  0
  8  9  1  0  0  0  0
  9 10  2  0  0  0  0
 10 11  1  0  0  0  0
 11 12  2  0  0  0  0
 12 13  1  0  0  0  0
 13 14  2  0  0  0  0
  9 14  1  0  0  0  0
 12 15  1  0  0  0  0
 15 16  1  0  0  0  0
  7 17  1  0  0  0  0
 17 18  1  0  0  0  0
 18 19  1  0  0  0  0
 19 20  1  0  0  0  0
 20 21  1  0  0  0  0
 21 22  1  0  0  0  0
 22 23  1  0  0  0  0
 23 24  1  0  0  0  0
 24 25  1  0  0  0  0
 25 26  1  0  0  0  0
 26 27  1  0  0  0  0
 27 28  1  0  0  0  0
 28 29  1  0  0  0  0
 29 30  1  0  0  0  0
 30 31  1  0  0  0  0
 31 32  1  0  0  0  0
 32 33  1  0  0  0  0
 33 34  1  0  0  0  0
 34 35  1  0  0  0  0
 19 36  1  0  0  0  0
 19 37  1  0  0  0  0
M  CHG  2  19   1  38  -1
M  END
>  <Name>
Thonzonium Bromide

>  <CAS>
553-08-2

>  <Formula>
C32H55BrN4O

>  <MolWt>
591.71 

>  <Bioactivity>
Thonzonium bromide is a monocationic detergent.

>  <Pathways>
Enzyme

>  <Target>
DHPS inhibitor

>  <Receptor>
DHPS

>  <Reference>
N/A

$$$$
T3036
  Mrv1561503291623562D          

 23 26  0  0  1  0            999 V2000
    2.3387    0.7029    0.0000 C   0  0  1  0  0  0  0  0  0  0  0  0
    2.8705    0.0722    0.0000 C   0  0  2  0  0  0  0  0  0  0  0  0
    3.6826    0.2174    0.0000 C   0  0  1  0  0  0  0  0  0  0  0  0
    3.9629    0.9934    0.0000 C   0  0  2  0  0  0  0  0  0  0  0  0
    4.7875    0.9666    0.0000 C   0  0  1  0  0  0  0  0  0  0  0  0
    5.2939    1.6179    0.0000 C   0  0  0  0  0  0  0  0  0  0  0  0
    6.1111    1.5050    0.0000 C   0  0  0  0  0  0  0  0  0  0  0  0
    4.9830    2.3821    0.0000 O   0  0  0  0  0  0  0  0  0  0  0  0
    5.0168    0.1741    0.0000 C   0  0  0  0  0  0  0  0  0  0  0  0
    4.3340   -0.2889    0.0000 C   0  0  0  0  0  0  0  0  0  0  0  0
    4.3228    1.7357    0.0000 C   0  0  0  0  0  0  0  0  0  0  0  0
    3.4311    1.6241    0.0000 C   0  0  0  0  0  0  0  0  0  0  0  0
    2.6190    1.4789    0.0000 C   0  0  0  0  0  0  0  0  0  0  0  0
    2.5902   -0.7037    0.0000 C   0  0  0  0  0  0  0  0  0  0  0  0
    1.7781   -0.8489    0.0000 C   0  0  0  0  0  0  0  0  0  0  0  0
    1.2463   -0.2182    0.0000 C   0  0  0  0  0  0  0  0  0  0  0  0
    0.4342   -0.3634    0.0000 C   0  0  0  0  0  0  0  0  0  0  0  0
   -0.0976    0.2673    0.0000 C   0  0  0  0  0  0  0  0  0  0  0  0
   -0.9098    0.1221    0.0000 O   0  0  0  0  0  0  0  0  0  0  0  0
    0.1827    1.0432    0.0000 C   0  0  0  0  0  0  0  0  0  0  0  0
    0.9948    1.1884    0.0000 C   0  0  0  0  0  0  0  0  0  0  0  0
    1.5266    0.5577    0.0000 C   0  0  1  0  0  0  0  0  0  0  0  0
    1.8069    1.3336    0.0000 C   0  0  0  0  0  0  0  0  0  0  0  0
  1  2  1  0  0  0  0
  2  3  1  0  0  0  0
  3  4  1  0  0  0  0
  4  5  1  0  0  0  0
  5  6  1  1  0  0  0
  6  7  1  0  0  0  0
  6  8  2  0  0  0  0
  5  9  1  0  0  0  0
  9 10  1  0  0  0  0
  3 10  1  1  0  0  0
  4 11  1  1  0  0  0
  4 12  1  0  0  0  0
 12 13  1  0  0  0  0
  1 13  1  6  0  0  0
  2 14  1  6  0  0  0
 14 15  2  0  0  0  0
 15 16  1  0  0  0  0
 16 17  2  0  0  0  0
 17 18  1  0  0  0  0
 18 19  2  0  0  0  0
 18 20  1  0  0  0  0
 20 21  1  0  0  0  0
 21 22  1  0  0  0  0
  1 22  1  0  0  0  0
 16 22  1  0  0  0  0
 22 23  1  6  0  0  0
M  END
>  <Name>
Dydrogesterone

>  <CAS>
152-62-5

>  <Formula>
C21H28O2

>  <MolWt>
312.45 

>  <Bioactivity>
Dydrogesterone(Duphaston) is a potent, orally active progestogen indicated in a wide variety of gynaecological conditions related to progesterone deficiency.

>  <Pathways>
Endocrinology/ Hormones

>  <Target>
Progesterone Receptor agonist

>  <Receptor>
Progesterone Receptor

>  <Reference>
1. Tomic V, et al. Eur J Obstet Gynecol Reprod Biol. 2015 Mar;186:49-53. 

$$$$
5897-18-7
  Mrv1561503291623562D          

 24 22  0  0  0  0            999 V2000
    0.4125    0.0000    0.0000 H   0  3  0  0  0  0  0  0  0  0  0  0
    3.5946    0.0000    0.0000 H   0  3  0  0  0  0  0  0  0  0  0  0
   -0.4125    0.0000    0.0000 Cl  0  5  0  0  0  0  0  0  0  0  0  0
    2.7696    0.0000    0.0000 Cl  0  5  0  0  0  0  0  0  0  0  0  0
    0.0000   -1.6500    0.0000 C   0  0  0  0  0  0  0  0  0  0  0  0
    0.0000   -2.4750    0.0000 N   0  0  0  0  0  0  0  0  0  0  0  0
    0.7145   -2.8875    0.0000 C   0  0  0  0  0  0  0  0  0  0  0  0
    0.7145   -3.7125    0.0000 C   0  0  0  0  0  0  0  0  0  0  0  0
    0.0000   -4.1250    0.0000 N   0  0  0  0  0  0  0  0  0  0  0  0
   -0.7145   -3.7125    0.0000 C   0  0  0  0  0  0  0  0  0  0  0  0
   -0.7145   -2.8875    0.0000 C   0  0  0  0  0  0  0  0  0  0  0  0
    0.0000   -4.9500    0.0000 C   0  0  0  0  0  0  0  0  0  0  0  0
   -0.7145   -5.3625    0.0000 C   0  0  0  0  0  0  0  0  0  0  0  0
   -0.7145   -6.1875    0.0000 C   0  0  0  0  0  0  0  0  0  0  0  0
   -1.4289   -6.6000    0.0000 C   0  0  0  0  0  0  0  0  0  0  0  0
   -2.1434   -6.1875    0.0000 C   0  0  0  0  0  0  0  0  0  0  0  0
   -2.1434   -5.3625    0.0000 C   0  0  0  0  0  0  0  0  0  0  0  0
   -1.4289   -4.9500    0.0000 C   0  0  0  0  0  0  0  0  0  0  0  0
    0.7145   -5.3625    0.0000 C   0  0  0  0  0  0  0  0  0  0  0  0
    1.4289   -4.9500    0.0000 C   0  0  0  0  0  0  0  0  0  0  0  0
    2.1434   -5.3625    0.0000 C   0  0  0  0  0  0  0  0  0  0  0  0
    2.1434   -6.1875    0.0000 C   0  0  0  0  0  0  0  0  0  0  0  0
    1.4289   -6.6000    0.0000 C   0  0  0  0  0  0  0  0  0  0  0  0
    0.7145   -6.1875    0.0000 C   0  0  0  0  0  0  0  0  0  0  0  0
  5  6  1  0  0  0  0
  6  7  1  0  0  0  0
  7  8  1  0  0  0  0
  8  9  1  0  0  0  0
  9 10  1  0  0  0  0
 10 11  1  0  0  0  0
  6 11  1  0  0  0  0
  9 12  1  0  0  0  0
 12 13  1  0  0  0  0
 13 14  4  0  0  0  0
 14 15  4  0  0  0  0
 15 16  4  0  0  0  0
 16 17  4  0  0  0  0
 17 18  4  0  0  0  0
 13 18  4  0  0  0  0
 12 19  1  0  0  0  0
 19 20  4  0  0  0  0
 20 21  4  0  0  0  0
 21 22  4  0  0  0  0
 22 23  4  0  0  0  0
 23 24  4  0  0  0  0
 19 24  4  0  0  0  0
M  CHG  4   1   1   2   1   3  -1   4  -1
M  END
>  <Name>
Cyclizine 2HCl

>  <CAS>
5897-18-7

>  <Formula>
C18H24Cl2N2

>  <MolWt>
339.30 

>  <Bioactivity>
Cyclizine 2HCl is a histamine H1 antagonist given by mouth or parenterally for the control of postoperative and drug-induced vomiting and in motion sickness. 

>  <Pathways>
Neuroscience

>  <Target>
Histamine Receptor antagonist

>  <Receptor>
Histamine H1

>  <Reference>
1. Vella-Brincat JW, et al. J Pain Symptom Manage. 2012 Mar;43(3):540-8.

$$$$
3679-64-9
  Mrv1561503291623562D          

 18 19  0  0  0  0            999 V2000
    2.1434   -2.8875    0.0000 C   0  0  0  0  0  0  0  0  0  0  0  0
    2.1434   -3.7125    0.0000 C   0  0  0  0  0  0  0  0  0  0  0  0
    2.8579   -4.1250    0.0000 Br  0  0  0  0  0  0  0  0  0  0  0  0
    1.4289   -4.1250    0.0000 C   0  0  0  0  0  0  0  0  0  0  0  0
    0.7145   -3.7125    0.0000 C   0  0  0  0  0  0  0  0  0  0  0  0
    0.7145   -2.8875    0.0000 C   0  0  0  0  0  0  0  0  0  0  0  0
    1.4289   -2.4750    0.0000 C   0  0  0  0  0  0  0  0  0  0  0  0
    1.4289   -1.6500    0.0000 C   0  0  0  0  0  0  0  0  0  0  0  0
    0.7145   -1.2375    0.0000 N   0  0  0  0  0  0  0  0  0  0  0  0
    0.7145   -0.4125    0.0000 C   0  0  0  0  0  0  0  0  0  0  0  0
    0.0000    0.0000    0.0000 C   0  0  0  0  0  0  0  0  0  0  0  0
    0.0000    0.8250    0.0000 C   0  0  0  0  0  0  0  0  0  0  0  0
    0.7145    1.2375    0.0000 C   0  0  0  0  0  0  0  0  0  0  0  0
    0.7145    2.0625    0.0000 Cl  0  0  0  0  0  0  0  0  0  0  0  0
    1.4289    0.8250    0.0000 C   0  0  0  0  0  0  0  0  0  0  0  0
    1.4289   -0.0000    0.0000 C   0  0  0  0  0  0  0  0  0  0  0  0
    2.1434   -1.2375    0.0000 O   0  0  0  0  0  0  0  0  0  0  0  0
   -0.0000   -2.4750    0.0000 O   0  0  0  0  0  0  0  0  0  0  0  0
  1  2  2  0  0  0  0
  2  3  1  0  0  0  0
  2  4  1  0  0  0  0
  4  5  2  0  0  0  0
  5  6  1  0  0  0  0
  6  7  2  0  0  0  0
  1  7  1  0  0  0  0
  7  8  1  0  0  0  0
  8  9  1  0  0  0  0
  9 10  1  0  0  0  0
 10 11  2  0  0  0  0
 11 12  1  0  0  0  0
 12 13  2  0  0  0  0
 13 14  1  0  0  0  0
 13 15  1  0  0  0  0
 15 16  2  0  0  0  0
 10 16  1  0  0  0  0
  8 17  2  0  0  0  0
  6 18  1  0  0  0  0
M  END
>  <Name>
Salifungin

>  <CAS>
3679-64-9

>  <Formula>
C13H9BrClNO2

>  <MolWt>
326.57 

>  <Bioactivity>
Detail unknown

>  <Pathways>
Others

>  <Target>
Others

>  <Receptor>
Others

>  <Reference>
1. Kulagin VI, et al. Vestn Dermatol Venerol. 1972 Aug;46(8):75-6.

$$$$
T1489
  Mrv1561503291623562D          

 40 41  0  0  1  0            999 V2000
    0.7145   -1.2375    0.0000 C   0  0  0  0  0  0  0  0  0  0  0  0
    1.3819   -1.7224    0.0000 C   0  0  0  0  0  0  0  0  0  0  0  0
    1.1270   -2.5070    0.0000 N   0  0  0  0  0  0  0  0  0  0  0  0
    1.6119   -3.1745    0.0000 C   0  0  0  0  0  0  0  0  0  0  0  0
    2.4324   -3.0882    0.0000 C   0  0  0  0  0  0  0  0  0  0  0  0
    2.9173   -3.7557    0.0000 P   0  0  0  0  0  0  0  0  0  0  0  0
    3.4022   -4.4231    0.0000 O   0  0  0  0  0  0  0  0  0  0  0  0
    3.0667   -5.1768    0.0000 C   0  0  0  0  0  0  0  0  0  0  0  0
    2.2462   -5.2630    0.0000 O   0  0  0  0  0  0  0  0  0  0  0  0
    1.9106   -6.0167    0.0000 C   0  0  0  0  0  0  0  0  0  0  0  0
    1.0901   -6.1029    0.0000 C   0  0  0  0  0  0  0  0  0  0  0  0
    0.6052   -5.4355    0.0000 C   0  0  0  0  0  0  0  0  0  0  0  0
    2.3955   -6.6842    0.0000 O   0  0  0  0  0  0  0  0  0  0  0  0
    3.5516   -5.8442    0.0000 C   0  0  0  0  0  0  0  0  0  0  0  0
    3.2160   -6.5979    0.0000 C   0  0  0  0  0  0  0  0  0  0  0  0
    4.3721   -5.7580    0.0000 C   0  0  0  0  0  0  0  0  0  0  0  0
    3.5847   -3.2708    0.0000 C   0  0  0  0  0  0  0  0  0  0  0  0
    4.3384   -3.6063    0.0000 C   0  0  0  0  0  0  0  0  0  0  0  0
    5.0059   -3.1214    0.0000 C   0  0  0  0  0  0  0  0  0  0  0  0
    5.7595   -3.4570    0.0000 C   0  0  0  0  0  0  0  0  0  0  0  0
    6.4270   -2.9720    0.0000 C   0  0  0  0  0  0  0  0  0  0  0  0
    6.3407   -2.1516    0.0000 C   0  0  0  0  0  0  0  0  0  0  0  0
    7.0082   -1.6666    0.0000 C   0  0  0  0  0  0  0  0  0  0  0  0
    7.7618   -2.0022    0.0000 C   0  0  0  0  0  0  0  0  0  0  0  0
    7.8481   -2.8227    0.0000 C   0  0  0  0  0  0  0  0  0  0  0  0
    7.1806   -3.3076    0.0000 C   0  0  0  0  0  0  0  0  0  0  0  0
    2.2499   -4.2406    0.0000 O   0  0  0  0  0  0  0  0  0  0  0  0
    1.2763   -3.9282    0.0000 O   0  0  0  0  0  0  0  0  0  0  0  0
    0.3020   -2.5070    0.0000 C   0  0  0  0  0  0  0  0  0  0  0  0
    0.0470   -1.7224    0.0000 C   0  0  0  0  0  0  0  0  0  0  0  0
   -0.1830   -3.1745    0.0000 C   0  0  0  0  0  0  0  0  0  0  0  0
    0.1526   -3.9282    0.0000 O   0  0  0  0  0  0  0  0  0  0  0  0
   -1.0034   -3.0882    0.0000 O   0  5  0  0  0  0  0  0  0  0  0  0
    0.7145   -0.4125    0.0000 C   0  0  0  0  0  0  0  0  0  0  0  0
   -0.0000   -0.0000    0.0000 C   0  0  0  0  0  0  0  0  0  0  0  0
   -0.0000    0.8250    0.0000 C   0  0  0  0  0  0  0  0  0  0  0  0
    0.7145    1.2375    0.0000 C   0  0  0  0  0  0  0  0  0  0  0  0
    1.4289    0.8250    0.0000 C   0  0  0  0  0  0  0  0  0  0  0  0
    1.4289   -0.0000    0.0000 C   0  0  0  0  0  0  0  0  0  0  0  0
   -1.8239   -3.0020    0.0000 Na  0  3  0  0  0  0  0  0  0  0  0  0
  1  2  1  0  0  0  0
  2  3  1  0  0  0  0
  3  4  1  0  0  0  0
  4  5  1  0  0  0  0
  5  6  1  0  0  0  0
  6  7  1  0  0  0  0
  7  8  1  0  0  0  0
  8  9  1  0  0  0  0
  9 10  1  0  0  0  0
 10 11  1  0  0  0  0
 11 12  1  0  0  0  0
 10 13  2  0  0  0  0
  8 14  1  0  0  0  0
 14 15  1  0  0  0  0
 14 16  1  0  0  0  0
  6 17  1  0  0  0  0
 17 18  1  0  0  0  0
 18 19  1  0  0  0  0
 19 20  1  0  0  0  0
 20 21  1  0  0  0  0
 21 22  2  0  0  0  0
 22 23  1  0  0  0  0
 23 24  2  0  0  0  0
 24 25  1  0  0  0  0
 25 26  2  0  0  0  0
 21 26  1  0  0  0  0
  6 27  2  0  0  0  0
  4 28  2  0  0  0  0
  3 29  1  0  0  0  0
 29 30  1  0  0  0  0
  1 30  1  0  0  0  0
 29 31  1  0  0  0  0
 31 32  2  0  0  0  0
 31 33  1  0  0  0  0
  1 34  1  0  0  0  0
 34 35  1  0  0  0  0
 35 36  1  0  0  0  0
 36 37  1  0  0  0  0
 37 38  1  0  0  0  0
 38 39  1  0  0  0  0
 34 39  1  0  0  0  0
M  CHG  2  33  -1  40   1
M  END
>  <Name>
Fosinopril sodium

>  <CAS>
88889-14-9

>  <Formula>
C30H45NO7P.Na

>  <MolWt>
586.65 

>  <Bioactivity>
A phosphinic acid-containing angiotensin-converting enzyme inhibitor that is effective in the treatment of hypertension. It is a prodrug that is converted to its active metabolite fosinoprilat. 

>  <Pathways>
Angiogenesis;Endocrinology/ Hormones

>  <Target>
RAAS inhibitor; ACE inhibitor

>  <Receptor>
ACE

>  <Reference>
1. Sharma S, et al. Fosinopril Hemodynamics Study Group. Am J Ther. 1999 Jul;6(4):181-9. 

$$$$
532-11-6
  Mrv1561503291623562D          

 14 15  0  0  0  0            999 V2000
    2.0367    1.1759    0.0000 C   0  0  0  0  0  0  0  0  0  0  0  0
    2.0367    2.0009    0.0000 C   0  0  0  0  0  0  0  0  0  0  0  0
    2.7512    2.4134    0.0000 C   0  0  0  0  0  0  0  0  0  0  0  0
    3.4656    2.0009    0.0000 C   0  0  0  0  0  0  0  0  0  0  0  0
    3.4656    1.1759    0.0000 C   0  0  0  0  0  0  0  0  0  0  0  0
    2.7512    0.7634    0.0000 C   0  0  0  0  0  0  0  0  0  0  0  0
    2.7512   -0.0616    0.0000 C   0  0  0  0  0  0  0  0  0  0  0  0
    3.4186   -0.5465    0.0000 C   0  0  0  0  0  0  0  0  0  0  0  0
    3.1637   -1.3312    0.0000 C   0  0  0  0  0  0  0  0  0  0  0  0
    3.6486   -1.9986    0.0000 S   0  0  0  0  0  0  0  0  0  0  0  0
    2.3387   -1.3312    0.0000 S   0  0  0  0  0  0  0  0  0  0  0  0
    2.0837   -0.5465    0.0000 S   0  0  0  0  0  0  0  0  0  0  0  0
    2.7512    3.2384    0.0000 O   0  0  0  0  0  0  0  0  0  0  0  0
    2.0367    3.6509    0.0000 C   0  0  0  0  0  0  0  0  0  0  0  0
  1  2  2  0  0  0  0
  2  3  1  0  0  0  0
  3  4  2  0  0  0  0
  4  5  1  0  0  0  0
  5  6  2  0  0  0  0
  1  6  1  0  0  0  0
  6  7  1  0  0  0  0
  7  8  2  0  0  0  0
  8  9  1  0  0  0  0
  9 10  2  0  0  0  0
  9 11  1  0  0  0  0
 11 12  1  0  0  0  0
  7 12  1  0  0  0  0
  3 13  1  0  0  0  0
 13 14  1  0  0  0  0
M  END
>  <Name>
Anethole trithione

>  <CAS>
532-11-6

>  <Formula>
C10H8OS3

>  <MolWt>
240.35 

>  <Bioactivity>
Choleretic used to allay dry mouth and constipation due to tranquilizers. 

>  <Pathways>
Others

>  <Target>
Others

>  <Receptor>
Others

>  <Reference>
1. Ukai Y, et al. Arzneimittelforschung. 1988 Oct; 38(10):1460-5.

$$$$
T1501
  Mrv1561503291623562D          

 61 66  0  0  1  0            999 V2000
    4.7841   -2.0447    0.0000 C   0  0  2  0  0  0  0  0  0  0  0  0
    5.6246   -2.1850    0.0000 O   0  0  0  0  0  0  0  0  0  0  0  0
    6.0523   -1.4445    0.0000 C   0  0  0  0  0  0  0  0  0  0  0  0
    5.4874   -0.8384    0.0000 C   0  0  0  0  0  0  0  0  0  0  0  0
    5.6580   -0.1082    0.0000 C   0  0  0  0  0  0  0  0  0  0  0  0
    6.5488    0.1936    0.0000 C   0  0  0  0  0  0  0  0  0  0  0  0
    6.7598    1.0142    0.0000 C   0  0  0  0  0  0  0  0  0  0  0  0
    7.5574    1.2253    0.0000 O   0  0  0  0  0  0  0  0  0  0  0  0
    6.0874    1.6989    0.0000 C   0  0  0  0  0  0  0  0  0  0  0  0
    5.3731    1.3720    0.0000 C   0  0  0  0  0  0  0  0  0  0  0  0
    6.1968    1.4184    0.0000 N   0  0  0  0  0  0  0  0  0  0  0  0
    6.4954    0.6493    0.0000 C   0  0  0  0  0  0  0  0  0  0  0  0
    5.8563    0.1277    0.0000 N   0  0  0  0  0  0  0  0  0  0  0  0
    5.1626    0.5743    0.0000 C   0  0  0  0  0  0  0  0  0  0  0  0
    7.0765    1.2349    0.0000 C   0  0  0  0  0  0  0  0  0  0  0  0
    7.8742    1.0245    0.0000 C   0  0  0  0  0  0  0  0  0  0  0  0
    8.0908    0.2284    0.0000 N   0  0  0  0  0  0  0  0  0  0  0  0
    7.5097   -0.3572    0.0000 C   0  0  0  0  0  0  0  0  0  0  0  0
    6.7120   -0.1467    0.0000 C   0  0  0  0  0  0  0  0  0  0  0  0
    8.8885    0.0179    0.0000 C   0  0  0  0  0  0  0  0  0  0  0  0
    9.4696    0.6035    0.0000 C   0  0  0  0  0  0  0  0  0  0  0  0
    9.2530    1.3996    0.0000 C   0  0  0  0  0  0  0  0  0  0  0  0
   10.2673    0.3931    0.0000 C   0  0  0  0  0  0  0  0  0  0  0  0
    5.8429    2.4034    0.0000 N   0  0  0  0  0  0  0  0  0  0  0  0
    5.1748    2.9099    0.0000 C   0  0  0  0  0  0  0  0  0  0  0  0
    5.6049    3.6140    0.0000 O   0  0  0  0  0  0  0  0  0  0  0  0
    4.4244    3.2705    0.0000 C   0  0  0  0  0  0  0  0  0  0  0  0
    3.6126    3.4393    0.0000 C   0  0  0  0  0  0  0  0  0  0  0  0
    2.7855    3.4018    0.0000 C   0  0  0  0  0  0  0  0  0  0  0  0
    1.9960    3.1525    0.0000 C   0  0  0  0  0  0  0  0  0  0  0  0
    1.2968    2.7077    0.0000 C   0  0  1  0  0  0  0  0  0  0  0  0
    0.7355    2.0967    0.0000 C   0  0  2  0  0  0  0  0  0  0  0  0
    0.0603    2.5708    0.0000 O   0  0  0  0  0  0  0  0  0  0  0  0
    0.3513    1.3611    0.0000 C   0  0  2  0  0  0  0  0  0  0  0  0
    0.1705    0.5501    0.0000 C   0  0  1  0  0  0  0  0  0  0  0  0
   -0.6513    0.6224    0.0000 O   0  0  0  0  0  0  0  0  0  0  0  0
    0.2070   -0.2818    0.0000 C   0  0  2  0  0  0  0  0  0  0  0  0
    0.4683   -1.0884    0.0000 C   0  0  2  0  0  0  0  0  0  0  0  0
   -0.2734   -1.4495    0.0000 O   0  0  0  0  0  0  0  0  0  0  0  0
   -0.3316   -2.2724    0.0000 C   0  0  0  0  0  0  0  0  0  0  0  0
    0.3520   -2.7343    0.0000 O   0  0  0  0  0  0  0  0  0  0  0  0
   -1.0734   -2.6335    0.0000 C   0  0  0  0  0  0  0  0  0  0  0  0
    0.9546   -1.8105    0.0000 C   0  0  1  0  0  0  0  0  0  0  0  0
    1.6027   -2.3496    0.0000 C   0  0  1  0  0  0  0  0  0  0  0  0
    1.1693   -3.0516    0.0000 O   0  0  0  0  0  0  0  0  0  0  0  0
    1.5606   -3.7779    0.0000 C   0  0  0  0  0  0  0  0  0  0  0  0
    2.3740   -2.6870    0.0000 C   0  0  0  0  0  0  0  0  0  0  0  0
    3.2178   -2.7619    0.0000 C   0  0  0  0  0  0  0  0  0  0  0  0
    4.0394   -2.4946    0.0000 O   0  0  0  0  0  0  0  0  0  0  0  0
    0.3425   -2.3636    0.0000 C   0  0  0  0  0  0  0  0  0  0  0  0
   -0.6049   -0.4284    0.0000 C   0  0  0  0  0  0  0  0  0  0  0  0
   -0.4236    1.6442    0.0000 C   0  0  0  0  0  0  0  0  0  0  0  0
    0.7671    3.3402    0.0000 C   0  0  0  0  0  0  0  0  0  0  0  0
    4.6890    4.0519    0.0000 C   0  0  0  0  0  0  0  0  0  0  0  0
    7.1127   -0.4271    0.0000 C   0  0  0  0  0  0  0  0  0  0  0  0
    6.8693   -1.2211    0.0000 C   0  0  0  0  0  0  0  0  0  0  0  0
    7.4436   -1.8133    0.0000 C   0  0  0  0  0  0  0  0  0  0  0  0
    7.9178   -0.2471    0.0000 O   0  0  0  0  0  0  0  0  0  0  0  0
    4.7167   -1.2021    0.0000 C   0  0  0  0  0  0  0  0  0  0  0  0
    4.0028   -0.7886    0.0000 O   0  0  0  0  0  0  0  0  0  0  0  0
    4.9391   -2.8550    0.0000 C   0  0  0  0  0  0  0  0  0  0  0  0
  1  2  1  0  0  0  0
  2  3  1  0  0  0  0
  3  4  2  0  0  0  0
  4  5  1  0  0  0  0
  5  6  2  0  0  0  0
  6  7  1  0  0  0  0
  7  8  2  0  0  0  0
  7  9  1  0  0  0  0
  9 10  2  0  0  0  0
 10 11  1  0  0  0  0
 11 12  1  0  0  0  0
 12 13  1  0  0  0  0
 13 14  2  0  0  0  0
  5 14  1  0  0  0  0
 10 14  1  0  0  0  0
 12 15  1  0  0  0  0
 15 16  1  0  0  0  0
 16 17  1  0  0  0  0
 17 18  1  0  0  0  0
 18 19  1  0  0  0  0
 12 19  1  0  0  0  0
 17 20  1  0  0  0  0
 20 21  1  0  0  0  0
 21 22  1  0  0  0  0
 21 23  1  0  0  0  0
  9 24  1  0  0  0  0
 24 25  1  0  0  0  0
 25 26  2  0  0  0  0
 25 27  1  0  0  0  0
 27 28  2  0  0  0  0
 28 29  1  0  0  0  0
 29 30  2  0  0  0  0
 30 31  1  0  0  0  0
 31 32  1  0  0  0  0
 32 33  1  1  0  0  0
 32 34  1  0  0  0  0
 34 35  1  0  0  0  0
 35 36  1  6  0  0  0
 35 37  1  0  0  0  0
 37 38  1  0  0  0  0
 38 39  1  1  0  0  0
 39 40  1  0  0  0  0
 40 41  2  0  0  0  0
 40 42  1  0  0  0  0
 38 43  1  0  0  0  0
 43 44  1  0  0  0  0
 44 45  1  6  0  0  0
 45 46  1  0  0  0  0
 44 47  1  0  0  0  0
 47 48  2  0  0  0  0
 48 49  1  0  0  0  0
  1 49  1  0  0  0  0
 43 50  1  1  0  0  0
 37 51  1  6  0  0  0
 34 52  1  6  0  0  0
 31 53  1  1  0  0  0
 27 54  1  0  0  0  0
  6 55  1  0  0  0  0
 55 56  2  0  0  0  0
  3 56  1  0  0  0  0
 56 57  1  0  0  0  0
 55 58  1  0  0  0  0
  4 59  1  0  0  0  0
  1 59  1  0  0  0  0
 59 60  2  0  0  0  0
  1 61  1  1  0  0  0
M  END
>  <Name>
Rifabutin

>  <CAS>
72559-06-9

>  <Formula>
C46H62N4O11

>  <MolWt>
847.00 

>  <Bioactivity>
A broad-spectrum antibiotic that is being used as prophylaxis against disseminated Mycobacterium avium complex infection in HIV-positive patients. 

>  <Pathways>
DNA Damage/DNA Repair;Microbiology & Virology

>  <Target>
Antibiotic; DNA/RNA Synthesis inhibitor;HSP inhibitor

>  <Receptor>
RNA polymerase ;Endoplasmin;HSP 90

>  <Reference>
1. Schnaider T, et al. Cell Stress Chaperones. 2000 Jan;5(1):52-61. 

$$$$
73334-07-3
  Mrv1561503291623562D          

 32 32  0  0  0  0            999 V2000
    2.1434   -1.2375    0.0000 C   0  0  0  0  0  0  0  0  0  0  0  0
    1.4289   -0.8250    0.0000 N   0  0  0  0  0  0  0  0  0  0  0  0
    0.7145   -1.2375    0.0000 C   0  0  0  0  0  0  0  0  0  0  0  0
   -0.0000   -0.8250    0.0000 C   0  0  0  0  0  0  0  0  0  0  0  0
   -0.7145   -1.2375    0.0000 C   0  0  0  0  0  0  0  0  0  0  0  0
   -1.4289   -0.8250    0.0000 C   0  0  0  0  0  0  0  0  0  0  0  0
   -1.4289    0.0000    0.0000 C   0  0  0  0  0  0  0  0  0  0  0  0
   -2.1434    0.4125    0.0000 I   0  0  0  0  0  0  0  0  0  0  0  0
   -0.7145    0.4125    0.0000 C   0  0  0  0  0  0  0  0  0  0  0  0
   -0.0000    0.0000    0.0000 C   0  0  0  0  0  0  0  0  0  0  0  0
    0.7145    0.4125    0.0000 I   0  0  0  0  0  0  0  0  0  0  0  0
   -0.7145    1.2375    0.0000 N   0  0  0  0  0  0  0  0  0  0  0  0
   -1.4289    1.6500    0.0000 C   0  0  0  0  0  0  0  0  0  0  0  0
   -1.4289    2.4750    0.0000 C   0  0  0  0  0  0  0  0  0  0  0  0
   -2.1434    2.8875    0.0000 O   0  0  0  0  0  0  0  0  0  0  0  0
   -2.1434    3.7125    0.0000 C   0  0  0  0  0  0  0  0  0  0  0  0
   -2.1434    1.2375    0.0000 O   0  0  0  0  0  0  0  0  0  0  0  0
   -2.1434   -1.2375    0.0000 C   0  0  0  0  0  0  0  0  0  0  0  0
   -2.8579   -0.8250    0.0000 N   0  0  0  0  0  0  0  0  0  0  0  0
   -3.5724   -1.2375    0.0000 C   0  0  0  0  0  0  0  0  0  0  0  0
   -4.2868   -0.8250    0.0000 C   0  0  0  0  0  0  0  0  0  0  0  0
   -5.0013   -1.2375    0.0000 C   0  0  0  0  0  0  0  0  0  0  0  0
   -5.7158   -0.8250    0.0000 O   0  0  0  0  0  0  0  0  0  0  0  0
   -4.2868    0.0000    0.0000 O   0  0  0  0  0  0  0  0  0  0  0  0
   -2.1434   -2.0625    0.0000 O   0  0  0  0  0  0  0  0  0  0  0  0
   -0.7145   -2.0625    0.0000 I   0  0  0  0  0  0  0  0  0  0  0  0
    0.7145   -2.0625    0.0000 O   0  0  0  0  0  0  0  0  0  0  0  0
    1.4289    0.0000    0.0000 C   0  0  0  0  0  0  0  0  0  0  0  0
    2.8579   -0.8250    0.0000 C   0  0  0  0  0  0  0  0  0  0  0  0
    3.5724   -1.2375    0.0000 C   0  0  0  0  0  0  0  0  0  0  0  0
    4.2868   -0.8250    0.0000 O   0  0  0  0  0  0  0  0  0  0  0  0
    2.8579    0.0000    0.0000 O   0  0  0  0  0  0  0  0  0  0  0  0
  1  2  1  0  0  0  0
  2  3  1  0  0  0  0
  3  4  1  0  0  0  0
  4  5  2  0  0  0  0
  5  6  1  0  0  0  0
  6  7  2  0  0  0  0
  7  8  1  0  0  0  0
  7  9  1  0  0  0  0
  9 10  2  0  0  0  0
  4 10  1  0  0  0  0
 10 11  1  0  0  0  0
  9 12  1  0  0  0  0
 12 13  1  0  0  0  0
 13 14  1  0  0  0  0
 14 15  1  0  0  0  0
 15 16  1  0  0  0  0
 13 17  2  0  0  0  0
  6 18  1  0  0  0  0
 18 19  1  0  0  0  0
 19 20  1  0  0  0  0
 20 21  1  0  0  0  0
 21 22  1  0  0  0  0
 22 23  1  0  0  0  0
 21 24  1  0  0  0  0
 18 25  2  0  0  0  0
  5 26  1  0  0  0  0
  3 27  2  0  0  0  0
  2 28  1  0  0  0  0
  1 29  1  0  0  0  0
 29 30  1  0  0  0  0
 30 31  1  0  0  0  0
 29 32  1  0  0  0  0
M  END
>  <Name>
Iopromide

>  <CAS>
73334-07-3

>  <Formula>
C18H24I3N3O8

>  <MolWt>
791.12 

>  <Bioactivity>
Iopromide is a molecule used as a contrast medium. It is marketed under the name Ultravist which is produced by Bayer Healthcare. It is a low osmolar, non-ionic contrast agent for intravascular use.

>  <Pathways>
Others

>  <Target>
Others

>  <Receptor>
Others

>  <Reference>
1. Palkowitsch PK, et al. Acta Radiol. 2014 Jul;55(6):707-14. 

$$$$
107724-20-9
  Mrv1561503291623562D          

 30 35  0  0  1  0            999 V2000
    2.3611   -1.9565    0.0000 C   0  0  1  0  0  0  0  0  0  0  0  0
    2.7268   -1.2170    0.0000 C   0  0  2  0  0  0  0  0  0  0  0  0
    3.5501   -1.1639    0.0000 C   0  0  1  0  0  0  0  0  0  0  0  0
    4.0076   -1.8504    0.0000 C   0  0  2  0  0  0  0  0  0  0  0  0
    4.8019   -1.6274    0.0000 C   0  0  1  0  0  0  0  0  0  0  0  0
    5.5962   -1.4044    0.0000 C   0  0  0  0  0  0  0  0  0  0  0  0
    6.0538   -2.0909    0.0000 C   0  0  0  0  0  0  0  0  0  0  0  0
    5.5423   -2.7382    0.0000 C   0  0  0  0  0  0  0  0  0  0  0  0
    4.7686   -2.4517    0.0000 O   0  0  0  0  0  0  0  0  0  0  0  0
    5.7653   -3.5324    0.0000 O   0  0  0  0  0  0  0  0  0  0  0  0
    4.8353   -0.8031    0.0000 C   0  0  0  0  0  0  0  0  0  0  0  0
    4.0616   -0.5166    0.0000 C   0  0  0  0  0  0  0  0  0  0  0  0
    4.3125   -2.6170    0.0000 C   0  0  0  0  0  0  0  0  0  0  0  0
    3.6419   -2.5899    0.0000 C   0  0  0  0  0  0  0  0  0  0  0  0
    2.8186   -2.6430    0.0000 C   0  0  1  0  0  0  0  0  0  0  0  0
    1.9953   -2.6960    0.0000 O   0  0  0  0  0  0  0  0  0  0  0  0
    2.2692   -0.5305    0.0000 C   0  0  1  0  0  0  0  0  0  0  0  0
    1.4459   -0.5835    0.0000 C   0  0  0  0  0  0  0  0  0  0  0  0
    1.0802   -1.3230    0.0000 C   0  0  0  0  0  0  0  0  0  0  0  0
    0.2569   -1.3760    0.0000 C   0  0  0  0  0  0  0  0  0  0  0  0
   -0.1088   -2.1155    0.0000 C   0  0  0  0  0  0  0  0  0  0  0  0
   -0.9321   -2.1685    0.0000 O   0  0  0  0  0  0  0  0  0  0  0  0
    0.3487   -2.8020    0.0000 C   0  0  0  0  0  0  0  0  0  0  0  0
    1.1720   -2.7490    0.0000 C   0  0  0  0  0  0  0  0  0  0  0  0
    1.5378   -2.0095    0.0000 C   0  0  2  0  0  0  0  0  0  0  0  0
    1.5044   -2.8338    0.0000 C   0  0  0  0  0  0  0  0  0  0  0  0
    2.6350    0.2090    0.0000 C   0  0  0  0  0  0  0  0  0  0  0  0
    2.1774    0.8955    0.0000 O   0  0  0  0  0  0  0  0  0  0  0  0
    2.5431    1.6350    0.0000 C   0  0  0  0  0  0  0  0  0  0  0  0
    3.4583    0.2620    0.0000 O   0  0  0  0  0  0  0  0  0  0  0  0
  1  2  1  0  0  0  0
  2  3  1  0  0  0  0
  3  4  1  0  0  0  0
  4  5  1  0  0  0  0
  5  6  1  0  0  0  0
  6  7  1  0  0  0  0
  7  8  1  0  0  0  0
  8  9  1  0  0  0  0
  5  9  1  6  0  0  0
  8 10  2  0  0  0  0
  5 11  1  0  0  0  0
 11 12  1  0  0  0  0
  3 12  1  6  0  0  0
  4 13  1  6  0  0  0
  4 14  1  0  0  0  0
 14 15  1  0  0  0  0
  1 15  1  0  0  0  0
 15 16  1  1  0  0  0
  1 16  1  1  0  0  0
  2 17  1  1  0  0  0
 17 18  1  0  0  0  0
 18 19  1  0  0  0  0
 19 20  2  0  0  0  0
 20 21  1  0  0  0  0
 21 22  2  0  0  0  0
 21 23  1  0  0  0  0
 23 24  1  0  0  0  0
 24 25  1  0  0  0  0
  1 25  1  0  0  0  0
 19 25  1  0  0  0  0
 25 26  1  6  0  0  0
 17 27  1  1  0  0  0
 27 28  1  0  0  0  0
 28 29  1  0  0  0  0
 27 30  2  0  0  0  0
M  END
>  <Name>
Eplerenone

>  <CAS>
107724-20-9

>  <Formula>
C24H30O6

>  <MolWt>
414.49 

>  <Bioactivity>
Eplerenone, an aldosterone receptor antagonist similar to spironolactone, has been shown to produce sustained increases in plasma renin and serum aldosterone, consistent with inhibition of the negative regulatory feedback of aldosterone on renin secretion. The resulting increased plasma renin activity and aldosterone circulating levels do not overcome the effects of eplerenone. Eplerenone selectively binds to recombinant human mineralocorticoid receptors relative to its binding to recombinant human glucocorticoid, progesterone and androgen receptors. 

>  <Pathways>
Endocrinology/ Hormones

>  <Target>
Mineralocorticoid Receptor Antagonist LIPT1 Multivitamin uptake inhibitor;VB

>  <Receptor>
Mineralocorticoid Receptor

>  <Reference>
1. Keidar S, et al. J Cardiovasc Pharmacol, 2003, 41(6), 955-963.

$$$$
81161-17-3
  Mrv1561503291623562D          

 23 21  0  0  0  0            999 V2000
    0.4125    0.0000    0.0000 H   0  3  0  0  0  0  0  0  0  0  0  0
    5.6275   -0.5107    0.0000 C   0  0  0  0  0  0  0  0  0  0  0  0
    4.9131   -0.0982    0.0000 C   0  0  0  0  0  0  0  0  0  0  0  0
    4.1986   -0.5107    0.0000 C   0  0  0  0  0  0  0  0  0  0  0  0
    4.1986   -1.3357    0.0000 C   0  0  0  0  0  0  0  0  0  0  0  0
    3.4841   -1.7482    0.0000 C   0  0  0  0  0  0  0  0  0  0  0  0
    3.4841   -2.5732    0.0000 O   0  0  0  0  0  0  0  0  0  0  0  0
    2.7696   -2.9857    0.0000 C   0  0  0  0  0  0  0  0  0  0  0  0
    2.7696   -1.3357    0.0000 O   0  0  0  0  0  0  0  0  0  0  0  0
    4.9131    0.7268    0.0000 C   0  0  0  0  0  0  0  0  0  0  0  0
    5.6275    1.1393    0.0000 C   0  0  0  0  0  0  0  0  0  0  0  0
    6.3420    0.7268    0.0000 C   0  0  0  0  0  0  0  0  0  0  0  0
    6.3420   -0.0982    0.0000 C   0  0  0  0  0  0  0  0  0  0  0  0
    7.0565    1.1393    0.0000 O   0  0  0  0  0  0  0  0  0  0  0  0
    7.7709    0.7268    0.0000 C   0  0  0  0  0  0  0  0  0  0  0  0
    8.4854    1.1393    0.0000 C   0  0  0  0  0  0  0  0  0  0  0  0
    8.4854    1.9643    0.0000 O   0  0  0  0  0  0  0  0  0  0  0  0
    9.1999    0.7268    0.0000 C   0  0  0  0  0  0  0  0  0  0  0  0
    9.9144    1.1393    0.0000 N   0  0  0  0  0  0  0  0  0  0  0  0
   10.6288    0.7268    0.0000 C   0  0  0  0  0  0  0  0  0  0  0  0
   11.3433    1.1393    0.0000 C   0  0  0  0  0  0  0  0  0  0  0  0
   10.6288   -0.0982    0.0000 C   0  0  0  0  0  0  0  0  0  0  0  0
   -0.4125    0.0000    0.0000 Cl  0  5  0  0  0  0  0  0  0  0  0  0
  2  3  2  0  0  0  0
  3  4  1  0  0  0  0
  4  5  1  0  0  0  0
  5  6  1  0  0  0  0
  6  7  1  0  0  0  0
  7  8  1  0  0  0  0
  6  9  2  0  0  0  0
  3 10  1  0  0  0  0
 10 11  2  0  0  0  0
 11 12  1  0  0  0  0
 12 13  2  0  0  0  0
  2 13  1  0  0  0  0
 12 14  1  0  0  0  0
 14 15  1  0  0  0  0
 15 16  1  0  0  0  0
 16 17  1  0  0  0  0
 16 18  1  0  0  0  0
 18 19  1  0  0  0  0
 19 20  1  0  0  0  0
 20 21  1  0  0  0  0
 20 22  1  0  0  0  0
M  CHG  2   1   1  23  -1
M  END
>  <Name>
Esmolol HCl

>  <CAS>
81161-17-3

>  <Formula>
C16H25NO4.HCl

>  <MolWt>
331.15 

>  <Bioactivity>
Esmolol decreases the force and rate of heart contractions by blocking beta-adrenergic receptors of the sympathetic nervous system, which are found in the heart and other organs of the body. Esmolol prevents the action of two naturally occurring substances: epinephrine and norepinephrine. 

>  <Pathways>
GPCR/G Protein

>  <Target>
Adrenergic Receptor antagonist

>  <Receptor>
?-adrenergic receptor

>  <Reference>
1. Jahn P, et al. Arzneimittelforschung. 1995 May;45(5):536-41.

$$$$
160970-54-7
  Mrv1561503291623562D          

 35 37  0  0  1  0            999 V2000
    4.2868   -4.1250    0.0000 C   0  0  1  0  0  0  0  0  0  0  0  0
    3.5724   -3.7125    0.0000 N   0  0  0  0  0  0  0  0  0  0  0  0
    2.8579   -4.1250    0.0000 C   0  0  0  0  0  0  0  0  0  0  0  0
    2.1434   -3.7125    0.0000 C   0  0  0  0  0  0  0  0  0  0  0  0
    1.4289   -4.1250    0.0000 O   0  0  0  0  0  0  0  0  0  0  0  0
    0.7145   -3.7125    0.0000 C   0  0  0  0  0  0  0  0  0  0  0  0
    0.0000   -4.1250    0.0000 C   0  0  0  0  0  0  0  0  0  0  0  0
   -0.7145   -3.7125    0.0000 C   0  0  0  0  0  0  0  0  0  0  0  0
   -0.7145   -2.8875    0.0000 C   0  0  0  0  0  0  0  0  0  0  0  0
    0.0000   -2.4750    0.0000 C   0  0  0  0  0  0  0  0  0  0  0  0
    0.7145   -2.8875    0.0000 C   0  0  0  0  0  0  0  0  0  0  0  0
    1.4289   -2.4750    0.0000 O   0  0  0  0  0  0  0  0  0  0  0  0
    1.4289   -1.6500    0.0000 C   0  0  0  0  0  0  0  0  0  0  0  0
    2.1434   -1.2375    0.0000 C   0  0  0  0  0  0  0  0  0  0  0  0
    2.8579   -0.8250    0.0000 F   0  0  0  0  0  0  0  0  0  0  0  0
    1.7309   -0.5230    0.0000 F   0  0  0  0  0  0  0  0  0  0  0  0
    2.5559   -1.9520    0.0000 F   0  0  0  0  0  0  0  0  0  0  0  0
    5.0013   -3.7125    0.0000 C   0  0  0  0  0  0  0  0  0  0  0  0
    5.7158   -4.1250    0.0000 C   0  0  0  0  0  0  0  0  0  0  0  0
    6.4302   -3.7125    0.0000 C   0  0  0  0  0  0  0  0  0  0  0  0
    7.1447   -4.1250    0.0000 C   0  0  0  0  0  0  0  0  0  0  0  0
    7.1447   -4.9500    0.0000 C   0  0  0  0  0  0  0  0  0  0  0  0
    6.4302   -5.3625    0.0000 C   0  0  0  0  0  0  0  0  0  0  0  0
    5.7158   -4.9500    0.0000 C   0  0  0  0  0  0  0  0  0  0  0  0
    6.4302   -6.1875    0.0000 C   0  0  0  0  0  0  0  0  0  0  0  0
    5.7158   -6.6000    0.0000 O   0  0  0  0  0  0  0  0  0  0  0  0
    7.1447   -6.6000    0.0000 N   0  0  0  0  0  0  0  0  0  0  0  0
    7.9293   -5.2049    0.0000 N   0  0  0  0  0  0  0  0  0  0  0  0
    8.4143   -4.5375    0.0000 C   0  0  0  0  0  0  0  0  0  0  0  0
    7.9293   -3.8701    0.0000 C   0  0  0  0  0  0  0  0  0  0  0  0
    8.1843   -5.9896    0.0000 C   0  0  0  0  0  0  0  0  0  0  0  0
    8.9912   -6.1611    0.0000 C   0  0  0  0  0  0  0  0  0  0  0  0
    9.2462   -6.9457    0.0000 C   0  0  0  0  0  0  0  0  0  0  0  0
   10.0532   -7.1172    0.0000 O   0  0  0  0  0  0  0  0  0  0  0  0
    4.2868   -4.9500    0.0000 C   0  0  0  0  0  0  0  0  0  0  0  0
  1  2  1  0  0  0  0
  2  3  1  0  0  0  0
  3  4  1  0  0  0  0
  4  5  1  0  0  0  0
  5  6  1  0  0  0  0
  6  7  2  0  0  0  0
  7  8  1  0  0  0  0
  8  9  2  0  0  0  0
  9 10  1  0  0  0  0
 10 11  2  0  0  0  0
  6 11  1  0  0  0  0
 11 12  1  0  0  0  0
 12 13  1  0  0  0  0
 13 14  1  0  0  0  0
 14 15  1  0  0  0  0
 14 16  1  0  0  0  0
 14 17  1  0  0  0  0
  1 18  1  0  0  0  0
 18 19  1  0  0  0  0
 19 20  2  0  0  0  0
 20 21  1  0  0  0  0
 21 22  2  0  0  0  0
 22 23  1  0  0  0  0
 23 24  2  0  0  0  0
 19 24  1  0  0  0  0
 23 25  1  0  0  0  0
 25 26  2  0  0  0  0
 25 27  1  0  0  0  0
 22 28  1  0  0  0  0
 28 29  1  0  0  0  0
 29 30  1  0  0  0  0
 21 30  1  0  0  0  0
 28 31  1  0  0  0  0
 31 32  1  0  0  0  0
 32 33  1  0  0  0  0
 33 34  1  0  0  0  0
  1 35  1  1  0  0  0
M  END
>  <Name>
Silodosin

>  <CAS>
160970-54-7

>  <Formula>
C25H32F3N3O4

>  <MolWt>
495.53 

>  <Bioactivity>
Silodosin is an ?1-adrenoceptor antagonist with high uroselectivity.

>  <Pathways>
GPCR/G Protein

>  <Target>
Adrenergic Receptor antagonist

>  <Receptor>
?-adrenergic receptor

>  <Reference>
1. Berman HM, et al. Nucleic Acids Res. 2000 Jan 1;28(1):235-42.

$$$$
52-62-0
  Mrv1561503291623562D          

 37 36  0  0  1  0            999 V2000
    0.3572    0.2063    0.0000 C   0  0  2  0  0  0  0  0  0  0  0  0
   -0.3572   -0.2063    0.0000 C   0  0  2  0  0  0  0  0  0  0  0  0
   -1.0717    0.2062    0.0000 C   0  0  0  0  0  0  0  0  0  0  0  0
   -1.7862   -0.2063    0.0000 O   0  0  0  0  0  0  0  0  0  0  0  0
   -1.0717    1.0312    0.0000 O   0  5  0  0  0  0  0  0  0  0  0  0
   -0.3572   -1.0313    0.0000 O   0  0  0  0  0  0  0  0  0  0  0  0
    1.0717   -0.2062    0.0000 C   0  0  0  0  0  0  0  0  0  0  0  0
    1.7862    0.2063    0.0000 O   0  0  0  0  0  0  0  0  0  0  0  0
    1.0717   -1.0312    0.0000 O   0  0  0  0  0  0  0  0  0  0  0  0
    0.3572    1.0313    0.0000 O   0  0  0  0  0  0  0  0  0  0  0  0
    5.6974    0.2063    0.0000 C   0  0  2  0  0  0  0  0  0  0  0  0
    4.9830   -0.2063    0.0000 C   0  0  2  0  0  0  0  0  0  0  0  0
    4.2685    0.2062    0.0000 C   0  0  0  0  0  0  0  0  0  0  0  0
    3.5540   -0.2063    0.0000 O   0  0  0  0  0  0  0  0  0  0  0  0
    4.2685    1.0312    0.0000 O   0  5  0  0  0  0  0  0  0  0  0  0
    4.9830   -1.0313    0.0000 O   0  0  0  0  0  0  0  0  0  0  0  0
    6.4119   -0.2062    0.0000 C   0  0  0  0  0  0  0  0  0  0  0  0
    7.1264    0.2063    0.0000 O   0  0  0  0  0  0  0  0  0  0  0  0
    6.4119   -1.0312    0.0000 O   0  0  0  0  0  0  0  0  0  0  0  0
    5.6974    1.0313    0.0000 O   0  0  0  0  0  0  0  0  0  0  0  0
   -1.5188   -4.4286    0.0000 C   0  0  0  0  0  0  0  0  0  0  0  0
   -2.2333   -4.0161    0.0000 N   0  3  0  0  0  0  0  0  0  0  0  0
   -3.0179   -3.7612    0.0000 C   0  0  0  0  0  0  0  0  0  0  0  0
   -3.0179   -2.9362    0.0000 C   0  0  0  0  0  0  0  0  0  0  0  0
   -2.2333   -2.6813    0.0000 C   0  0  0  0  0  0  0  0  0  0  0  0
   -1.7483   -3.3487    0.0000 C   0  0  0  0  0  0  0  0  0  0  0  0
   -2.5688   -4.7698    0.0000 C   0  0  0  0  0  0  0  0  0  0  0  0
   -0.8043   -4.0161    0.0000 C   0  0  0  0  0  0  0  0  0  0  0  0
   -0.0899   -4.4286    0.0000 C   0  0  0  0  0  0  0  0  0  0  0  0
    0.6246   -4.0161    0.0000 C   0  0  0  0  0  0  0  0  0  0  0  0
    1.3391   -4.4286    0.0000 C   0  0  0  0  0  0  0  0  0  0  0  0
    2.0536   -4.0161    0.0000 N   0  3  0  0  0  0  0  0  0  0  0  0
    2.6667   -3.4641    0.0000 C   0  0  0  0  0  0  0  0  0  0  0  0
    3.3811   -3.8766    0.0000 C   0  0  0  0  0  0  0  0  0  0  0  0
    3.2096   -4.6836    0.0000 C   0  0  0  0  0  0  0  0  0  0  0  0
    2.3891   -4.7698    0.0000 C   0  0  0  0  0  0  0  0  0  0  0  0
    1.5686   -3.3487    0.0000 C   0  0  0  0  0  0  0  0  0  0  0  0
  1  2  1  0  0  0  0
  2  3  1  0  0  0  0
  3  4  2  0  0  0  0
  3  5  1  0  0  0  0
  2  6  1  1  0  0  0
  1  7  1  0  0  0  0
  7  8  1  0  0  0  0
  7  9  2  0  0  0  0
  1 10  1  1  0  0  0
 11 12  1  0  0  0  0
 12 13  1  0  0  0  0
 13 14  2  0  0  0  0
 13 15  1  0  0  0  0
 12 16  1  1  0  0  0
 11 17  1  0  0  0  0
 17 18  1  0  0  0  0
 17 19  2  0  0  0  0
 11 20  1  1  0  0  0
 21 22  1  0  0  0  0
 22 23  1  0  0  0  0
 23 24  1  0  0  0  0
 24 25  1  0  0  0  0
 25 26  1  0  0  0  0
 22 26  1  0  0  0  0
 22 27  1  0  0  0  0
 21 28  1  0  0  0  0
 28 29  1  0  0  0  0
 29 30  1  0  0  0  0
 30 31  1  0  0  0  0
 31 32  1  0  0  0  0
 32 33  1  0  0  0  0
 33 34  1  0  0  0  0
 34 35  1  0  0  0  0
 35 36  1  0  0  0  0
 32 36  1  0  0  0  0
 32 37  1  0  0  0  0
M  CHG  4   5  -1  15  -1  22   1  32   1
M  END
>  <Name>
Pentolinium Tartrate

>  <CAS>
52-62-0

>  <Formula>
C15H32N2.2C4H5O6

>  <MolWt>
538.60 

>  <Bioactivity>
A nicotinic antagonist that has been used as a ganglionic blocking agent in hypertension. 

>  <Pathways>
Neuroscience

>  <Target>
AChR antagonist

>  <Receptor>
AChR

>  <Reference>
1. Cachelin AB, Rust G. Pflugers Arch. 1995 Jan;429(3):449-51.

$$$$
T1289
  Mrv1561503291623562D          

 38 40  0  0  1  0            999 V2000
    1.5596   -2.8327    0.0000 C   0  0  0  0  0  0  0  0  0  0  0  0
    2.0914   -3.4634    0.0000 C   0  0  0  0  0  0  0  0  0  0  0  0
    2.9035   -3.3182    0.0000 C   0  0  0  0  0  0  0  0  0  0  0  0
    3.1838   -2.5422    0.0000 C   0  0  0  0  0  0  0  0  0  0  0  0
    2.6520   -1.9115    0.0000 C   0  0  0  0  0  0  0  0  0  0  0  0
    1.8399   -2.0567    0.0000 C   0  0  0  0  0  0  0  0  0  0  0  0
    3.9960   -2.3970    0.0000 C   0  0  0  0  0  0  0  0  0  0  0  0
    4.5278   -3.0277    0.0000 C   0  0  0  0  0  0  0  0  0  0  0  0
    5.3399   -2.8825    0.0000 O   0  0  0  0  0  0  0  0  0  0  0  0
    4.2475   -3.8037    0.0000 C   0  0  0  0  0  0  0  0  0  0  0  0
    3.4354   -3.9489    0.0000 C   0  0  0  0  0  0  0  0  0  0  0  0
    4.2763   -1.6211    0.0000 C   0  0  0  0  0  0  0  0  0  0  0  0
    2.6232   -4.0941    0.0000 C   0  0  0  0  0  0  0  0  0  0  0  0
    1.8111   -4.2393    0.0000 C   0  0  0  0  0  0  0  0  0  0  0  0
    2.3429   -4.8700    0.0000 O   0  0  0  0  0  0  0  0  0  0  0  0
    0.9990   -4.3845    0.0000 C   0  0  0  0  0  0  0  0  0  0  0  0
    0.4672   -3.7538    0.0000 C   0  0  0  0  0  0  0  0  0  0  0  0
    0.7475   -2.9779    0.0000 C   0  0  0  0  0  0  0  0  0  0  0  0
    0.0962   -2.4715    0.0000 C   0  0  0  0  0  0  0  0  0  0  0  0
   -0.5867   -2.9345    0.0000 C   0  0  0  0  0  0  0  0  0  0  0  0
   -1.3626   -2.6542    0.0000 O   0  0  0  0  0  0  0  0  0  0  0  0
   -1.5078   -1.8421    0.0000 C   0  0  0  0  0  0  0  0  0  0  0  0
   -2.2837   -1.5618    0.0000 O   0  0  0  0  0  0  0  0  0  0  0  0
   -0.8771   -1.3103    0.0000 C   0  0  0  0  0  0  0  0  0  0  0  0
   -0.3574   -3.7270    0.0000 C   0  0  0  0  0  0  0  0  0  0  0  0
   -0.8637   -4.3783    0.0000 C   0  0  0  0  0  0  0  0  0  0  0  0
   -1.6810   -4.2655    0.0000 C   0  0  0  0  0  0  0  0  0  0  0  0
   -1.9919   -3.5013    0.0000 O   0  5  0  0  0  0  0  0  0  0  0  0
   -2.1873   -4.9168    0.0000 O   0  0  0  0  0  0  0  0  0  0  0  0
   -0.5528   -5.1425    0.0000 C   0  0  0  0  0  0  0  0  0  0  0  0
   -1.0592   -5.7938    0.0000 C   0  0  0  0  0  0  0  0  0  0  0  0
   -0.7483   -6.5580    0.0000 C   0  0  0  0  0  0  0  0  0  0  0  0
   -1.2547   -7.2093    0.0000 C   0  0  0  0  0  0  0  0  0  0  0  0
   -0.9438   -7.9735    0.0000 C   0  0  0  0  0  0  0  0  0  0  0  0
   -2.0719   -7.0965    0.0000 C   0  0  0  0  0  0  0  0  0  0  0  0
    0.9451   -2.1769    0.0000 C   0  0  0  0  0  0  0  0  0  0  0  0
    1.2487   -2.0685    0.0000 C   0  0  0  0  0  0  0  0  0  0  0  0
   -2.3028   -2.7371    0.0000 Na  0  3  0  0  0  0  0  0  0  0  0  0
  1  2  1  0  0  0  0
  2  3  1  0  0  0  0
  3  4  1  0  0  0  0
  4  5  1  0  0  0  0
  5  6  1  0  0  0  0
  1  6  1  0  0  0  0
  4  7  1  0  0  0  0
  7  8  1  0  0  0  0
  8  9  1  0  0  0  0
  8 10  1  0  0  0  0
 10 11  1  0  0  0  0
  3 11  1  0  0  0  0
  7 12  1  0  0  0  0
  3 13  1  0  0  0  0
  2 14  1  0  0  0  0
 14 15  1  0  0  0  0
 14 16  1  0  0  0  0
 16 17  1  0  0  0  0
 17 18  1  0  0  0  0
  1 18  1  0  0  0  0
 18 19  1  0  0  0  0
 19 20  1  0  0  0  0
 20 21  1  0  0  0  0
 21 22  1  0  0  0  0
 22 23  2  0  0  0  0
 22 24  1  0  0  0  0
 20 25  1  0  0  0  0
 17 25  1  0  0  0  0
 25 26  2  0  0  0  0
 26 27  1  0  0  0  0
 27 28  1  0  0  0  0
 27 29  2  0  0  0  0
 26 30  1  0  0  0  0
 30 31  1  0  0  0  0
 31 32  1  0  0  0  0
 32 33  2  3  0  0  0
 33 34  1  0  0  0  0
 33 35  1  0  0  0  0
 18 36  1  0  0  0  0
  1 37  1  0  0  0  0
M  CHG  2  28  -1  38   1
M  END
>  <Name>
Sodium fusidate

>  <CAS>
751-94-0

>  <Formula>
C31H47NaO6

>  <MolWt>
538.69 

>  <Bioactivity>
An antibiotic isolated from the fermentation broth of Fusidium coccineum. (From Merck Index, 11th ed). It acts by inhibiting translocation during protein synthesis. 

>  <Pathways>
Microbiology & Virology

>  <Target>
Antibacterial

>  <Receptor>
EEF G;CAT

>  <Reference>
1. Murray IA, et al. J Mol Biol. 1995 Dec 15;254(5):993-1005. 

$$$$
T1400
  Mrv1561503291623562D          

 34 35  0  0  1  0            999 V2000
   -0.8038   -0.4383    0.0000 C   0  0  0  0  0  0  0  0  0  0  0  0
   -0.8038    0.3867    0.0000 C   0  0  0  0  0  0  0  0  0  0  0  0
   -0.8038    1.2117    0.0000 O   0  0  0  0  0  0  0  0  0  0  0  0
   -0.0893    0.7992    0.0000 C   0  0  0  0  0  0  0  0  0  0  0  0
   -0.0893    1.6242    0.0000 O   0  0  0  0  0  0  0  0  0  0  0  0
    0.6252    0.3867    0.0000 C   0  0  0  0  0  0  0  0  0  0  0  0
    1.3396    0.7992    0.0000 C   0  0  0  0  0  0  0  0  0  0  0  0
    1.3396    1.6242    0.0000 O   0  0  0  0  0  0  0  0  0  0  0  0
    2.0541    0.3867    0.0000 C   0  0  0  0  0  0  0  0  0  0  0  0
    2.7686    0.7992    0.0000 C   0  0  0  0  0  0  0  0  0  0  0  0
    2.7686    1.6242    0.0000 O   0  0  0  0  0  0  0  0  0  0  0  0
    3.4830    0.3867    0.0000 C   0  0  0  0  0  0  0  0  0  0  0  0
    3.4830   -0.4383    0.0000 C   0  0  0  0  0  0  0  0  0  0  0  0
    2.7686   -0.8508    0.0000 C   0  0  0  0  0  0  0  0  0  0  0  0
    2.0541   -0.4383    0.0000 C   0  0  0  0  0  0  0  0  0  0  0  0
    1.3396   -0.8508    0.0000 C   0  0  0  0  0  0  0  0  0  0  0  0
    1.3396   -1.6758    0.0000 O   0  0  0  0  0  0  0  0  0  0  0  0
    0.6252   -0.4383    0.0000 C   0  0  0  0  0  0  0  0  0  0  0  0
   -0.0893   -0.8508    0.0000 C   0  0  0  0  0  0  0  0  0  0  0  0
    2.7686   -1.6758    0.0000 Cl  0  0  0  0  0  0  0  0  0  0  0  0
   -1.5183    0.7992    0.0000 C   0  0  0  0  0  0  0  0  0  0  0  0
   -1.5183    1.6242    0.0000 O   0  0  0  0  0  0  0  0  0  0  0  0
   -2.2327    0.3867    0.0000 C   0  0  0  0  0  0  0  0  0  0  0  0
   -2.2327   -0.4383    0.0000 C   0  0  0  0  0  0  0  0  0  0  0  0
   -2.9472   -0.8508    0.0000 O   0  0  0  0  0  0  0  0  0  0  0  0
   -1.5183   -0.8508    0.0000 C   0  0  0  0  0  0  0  0  0  0  0  0
   -1.5183   -1.6758    0.0000 N   0  0  0  0  0  0  0  0  0  0  0  0
   -0.8038   -2.0883    0.0000 C   0  0  0  0  0  0  0  0  0  0  0  0
   -2.2327   -2.0883    0.0000 C   0  0  0  0  0  0  0  0  0  0  0  0
   -2.9472    0.7992    0.0000 C   0  0  0  0  0  0  0  0  0  0  0  0
   -2.9472    1.6242    0.0000 O   0  0  0  0  0  0  0  0  0  0  0  0
   -3.6617    0.3867    0.0000 N   0  0  0  0  0  0  0  0  0  0  0  0
    6.6652    0.0000    0.0000 H   0  3  0  0  0  0  0  0  0  0  0  0
    5.8402    0.0000    0.0000 Cl  0  5  0  0  0  0  0  0  0  0  0  0
  1  2  1  0  0  0  0
  2  3  1  0  0  0  0
  2  4  1  0  0  0  0
  4  5  2  0  0  0  0
  4  6  1  0  0  0  0
  6  7  2  0  0  0  0
  7  8  1  0  0  0  0
  7  9  1  0  0  0  0
  9 10  2  0  0  0  0
 10 11  1  0  0  0  0
 10 12  1  0  0  0  0
 12 13  2  0  0  0  0
 13 14  1  0  0  0  0
 14 15  2  0  0  0  0
  9 15  1  0  0  0  0
 15 16  1  0  0  0  0
 16 17  1  0  0  0  0
 16 18  1  0  0  0  0
  6 18  1  0  0  0  0
 18 19  1  0  0  0  0
  1 19  1  0  0  0  0
 14 20  1  0  0  0  0
  2 21  1  0  0  0  0
 21 22  2  0  0  0  0
 21 23  1  0  0  0  0
 23 24  1  0  0  0  0
 24 25  2  0  0  0  0
 24 26  1  0  0  0  0
  1 26  1  0  0  0  0
 26 27  1  0  0  0  0
 27 28  1  0  0  0  0
 27 29  1  0  0  0  0
 23 30  2  0  0  0  0
 30 31  1  0  0  0  0
 30 32  1  0  0  0  0
M  CHG  2  33   1  34  -1
M  END
>  <Name>
Demeclocycline HCl

>  <CAS>
64-73-3

>  <Formula>
C21H21ClN2O8.HCl

>  <MolWt>
501.32 

>  <Bioactivity>
Demeclocycline is a tetracycline antibiotic derived from a strain of Streptomyces aureofaciens.

>  <Pathways>
Microbiology & Virology

>  <Target>
Antibiotic

>  <Receptor>
30S ribosomal protein

>  <Reference>
1. Imming P, et al. Nat Rev Drug Discov. 2006 Oct;5(10):821-34. 

$$$$
64887-14-5
  Mrv1561503291623562D          

 30 30  0  0  0  0            999 V2000
    0.4125    0.0000    0.0000 H   0  3  0  0  0  0  0  0  0  0  0  0
    3.0127    0.6335    0.0000 C   0  0  0  0  0  0  0  0  0  0  0  0
    2.2982    1.0460    0.0000 C   0  0  0  0  0  0  0  0  0  0  0  0
    2.2982    1.8710    0.0000 C   0  0  0  0  0  0  0  0  0  0  0  0
    3.0127    2.2835    0.0000 C   0  0  0  0  0  0  0  0  0  0  0  0
    3.7272    1.8710    0.0000 C   0  0  0  0  0  0  0  0  0  0  0  0
    3.7272    1.0460    0.0000 C   0  0  0  0  0  0  0  0  0  0  0  0
    4.4416    0.6335    0.0000 N   0  0  0  0  0  0  0  0  0  0  0  0
    5.1561    1.0460    0.0000 C   0  0  0  0  0  0  0  0  0  0  0  0
    5.8706    0.6335    0.0000 C   0  0  0  0  0  0  0  0  0  0  0  0
    5.8706   -0.1915    0.0000 N   0  0  0  0  0  0  0  0  0  0  0  0
    5.1561   -0.6040    0.0000 C   0  0  0  0  0  0  0  0  0  0  0  0
    4.4416   -0.1915    0.0000 C   0  0  0  0  0  0  0  0  0  0  0  0
    6.5850   -0.6040    0.0000 C   0  0  0  0  0  0  0  0  0  0  0  0
    7.2995   -0.1915    0.0000 C   0  0  0  0  0  0  0  0  0  0  0  0
    8.0140   -0.6040    0.0000 C   0  0  0  0  0  0  0  0  0  0  0  0
    8.7285   -0.1915    0.0000 N   0  0  0  0  0  0  0  0  0  0  0  0
    9.4429   -0.6040    0.0000 C   0  0  0  0  0  0  0  0  0  0  0  0
   10.1574   -0.1915    0.0000 C   0  0  0  0  0  0  0  0  0  0  0  0
   10.8719   -0.6040    0.0000 C   0  0  0  0  0  0  0  0  0  0  0  0
   11.5863   -0.1915    0.0000 O   0  0  0  0  0  0  0  0  0  0  0  0
   10.8719   -1.4290    0.0000 N   0  0  0  0  0  0  0  0  0  0  0  0
   10.1574   -1.8415    0.0000 C   0  0  0  0  0  0  0  0  0  0  0  0
   10.1574   -2.6665    0.0000 O   0  0  0  0  0  0  0  0  0  0  0  0
    9.4429   -1.4290    0.0000 N   0  0  0  0  0  0  0  0  0  0  0  0
    8.7285   -1.8415    0.0000 C   0  0  0  0  0  0  0  0  0  0  0  0
   11.5863   -1.8415    0.0000 C   0  0  0  0  0  0  0  0  0  0  0  0
    4.4416    2.2835    0.0000 O   0  0  0  0  0  0  0  0  0  0  0  0
    5.1561    1.8710    0.0000 C   0  0  0  0  0  0  0  0  0  0  0  0
   -0.4125    0.0000    0.0000 Cl  0  5  0  0  0  0  0  0  0  0  0  0
  2  3  2  0  0  0  0
  3  4  1  0  0  0  0
  4  5  2  0  0  0  0
  5  6  1  0  0  0  0
  6  7  2  0  0  0  0
  2  7  1  0  0  0  0
  7  8  1  0  0  0  0
  8  9  1  0  0  0  0
  9 10  1  0  0  0  0
 10 11  1  0  0  0  0
 11 12  1  0  0  0  0
 12 13  1  0  0  0  0
  8 13  1  0  0  0  0
 11 14  1  0  0  0  0
 14 15  1  0  0  0  0
 15 16  1  0  0  0  0
 16 17  1  0  0  0  0
 17 18  1  0  0  0  0
 18 19  2  0  0  0  0
 19 20  1  0  0  0  0
 20 21  2  0  0  0  0
 20 22  1  0  0  0  0
 22 23  1  0  0  0  0
 23 24  2  0  0  0  0
 23 25  1  0  0  0  0
 18 25  1  0  0  0  0
 25 26  1  0  0  0  0
 22 27  1  0  0  0  0
  6 28  1  0  0  0  0
 28 29  1  0  0  0  0
M  CHG  2   1   1  30  -1
M  END
>  <Name>
Urapidil HCl

>  <CAS>
64887-14-5

>  <Formula>
C20H29N5O3.HCl

>  <MolWt>
423.94 

>  <Bioactivity>
Urapidil HCl is an ?1-adrenoceptor antagonist and 5-HT1A receptor agonist.

>  <Pathways>
Neuroscience

>  <Target>
Adrenergic Receptor antagonist;5-HT receptor antagonist

>  <Receptor>
?-adrenergic receptor;5-HT Receptor

>  <Reference>
1. Luchini L, et al. Minerva Anestesiol. 1991 Sep;57(9):702-3.

$$$$
81403-68-1
  Mrv1561503291623562D          

 30 30  0  0  0  0            999 V2000
    0.4125    0.0000    0.0000 H   0  3  0  0  0  0  0  0  0  0  0  0
    4.9131    1.1970    0.0000 C   0  0  0  0  0  0  0  0  0  0  0  0
    4.1986    0.7845    0.0000 C   0  0  0  0  0  0  0  0  0  0  0  0
    3.4841    1.1970    0.0000 O   0  0  0  0  0  0  0  0  0  0  0  0
    2.7696    0.7845    0.0000 C   0  0  0  0  0  0  0  0  0  0  0  0
    4.1986   -0.0405    0.0000 C   0  0  0  0  0  0  0  0  0  0  0  0
    4.9131   -0.4530    0.0000 C   0  0  0  0  0  0  0  0  0  0  0  0
    5.6275   -0.0405    0.0000 C   0  0  0  0  0  0  0  0  0  0  0  0
    5.6275    0.7845    0.0000 C   0  0  0  0  0  0  0  0  0  0  0  0
    6.3420    1.1970    0.0000 C   0  0  0  0  0  0  0  0  0  0  0  0
    7.0565    0.7845    0.0000 N   0  0  0  0  0  0  0  0  0  0  0  0
    7.0565   -0.0405    0.0000 C   0  0  0  0  0  0  0  0  0  0  0  0
    6.3420   -0.4530    0.0000 N   0  0  0  0  0  0  0  0  0  0  0  0
    7.7709   -0.4530    0.0000 N   0  0  0  0  0  0  0  0  0  0  0  0
    8.4854   -0.0405    0.0000 C   0  0  0  0  0  0  0  0  0  0  0  0
    9.1999   -0.4530    0.0000 C   0  0  0  0  0  0  0  0  0  0  0  0
    9.9144   -0.0405    0.0000 C   0  0  0  0  0  0  0  0  0  0  0  0
   10.6288   -0.4530    0.0000 N   0  0  0  0  0  0  0  0  0  0  0  0
   11.3433   -0.0405    0.0000 C   0  0  0  0  0  0  0  0  0  0  0  0
   11.3433    0.7845    0.0000 O   0  0  0  0  0  0  0  0  0  0  0  0
   12.0578   -0.4530    0.0000 C   0  0  0  0  0  0  0  0  0  0  0  0
   12.8114   -0.1174    0.0000 O   0  0  0  0  0  0  0  0  0  0  0  0
   13.3635   -0.7305    0.0000 C   0  0  0  0  0  0  0  0  0  0  0  0
   12.9510   -1.4450    0.0000 C   0  0  0  0  0  0  0  0  0  0  0  0
   12.1440   -1.2734    0.0000 C   0  0  0  0  0  0  0  0  0  0  0  0
    7.7709   -1.2780    0.0000 C   0  0  0  0  0  0  0  0  0  0  0  0
    6.3420    2.0220    0.0000 N   0  0  0  0  0  0  0  0  0  0  0  0
    3.4841   -0.4530    0.0000 O   0  0  0  0  0  0  0  0  0  0  0  0
    3.4841   -1.2780    0.0000 C   0  0  0  0  0  0  0  0  0  0  0  0
   -0.4125    0.0000    0.0000 Cl  0  5  0  0  0  0  0  0  0  0  0  0
  2  3  2  0  0  0  0
  3  4  1  0  0  0  0
  4  5  1  0  0  0  0
  3  6  1  0  0  0  0
  6  7  2  0  0  0  0
  7  8  1  0  0  0  0
  8  9  2  0  0  0  0
  2  9  1  0  0  0  0
  9 10  1  0  0  0  0
 10 11  2  0  0  0  0
 11 12  1  0  0  0  0
 12 13  2  0  0  0  0
  8 13  1  0  0  0  0
 12 14  1  0  0  0  0
 14 15  1  0  0  0  0
 15 16  1  0  0  0  0
 16 17  1  0  0  0  0
 17 18  1  0  0  0  0
 18 19  1  0  0  0  0
 19 20  2  0  0  0  0
 19 21  1  0  0  0  0
 21 22  1  0  0  0  0
 22 23  1  0  0  0  0
 23 24  1  0  0  0  0
 24 25  1  0  0  0  0
 21 25  1  0  0  0  0
 14 26  1  0  0  0  0
 10 27  1  0  0  0  0
  6 28  1  0  0  0  0
 28 29  1  0  0  0  0
M  CHG  2   1   1  30  -1
M  END
>  <Name>
Alfuzosin HCl

>  <CAS>
81403-68-1

>  <Formula>
C19H27N5O4.HCl

>  <MolWt>
425.91 

>  <Bioactivity>
Alfuzosin(Uroxatral) is an alpha1 receptor antagonist used to treat benign prostatic hyperplasia (BPH). It works by relaxing the muscles in the prostate and bladder neck, making it easier to urinate. 

>  <Pathways>
GPCR/G Protein

>  <Target>
Adrenergic Receptor antagonist

>  <Receptor>
?-adrenergic receptor

>  <Reference>
1. Kenny BA, et al. Br J Pharmacol. 1996 Jun;118(4):871-8.

$$$$
2508-72-7
  Mrv1561503291623562D          

 22 22  0  0  0  0            999 V2000
    0.4125    0.0000    0.0000 H   0  3  0  0  0  0  0  0  0  0  0  0
    4.6111   -1.0208    0.0000 C   0  0  0  0  0  0  0  0  0  0  0  0
    4.6111   -0.1958    0.0000 C   0  0  0  0  0  0  0  0  0  0  0  0
    3.8966    0.2167    0.0000 N   0  0  0  0  0  0  0  0  0  0  0  0
    3.1821   -0.1958    0.0000 C   0  0  0  0  0  0  0  0  0  0  0  0
    3.1821   -1.0208    0.0000 C   0  0  0  0  0  0  0  0  0  0  0  0
    3.8496   -1.5057    0.0000 N   0  0  0  0  0  0  0  0  0  0  0  0
    3.5946   -2.2903    0.0000 C   0  0  0  0  0  0  0  0  0  0  0  0
    2.7696   -2.2903    0.0000 C   0  0  0  0  0  0  0  0  0  0  0  0
    2.5147   -1.5057    0.0000 N   0  0  0  0  0  0  0  0  0  0  0  0
    3.8966    1.0417    0.0000 C   0  0  0  0  0  0  0  0  0  0  0  0
    4.6111    1.4542    0.0000 C   0  0  0  0  0  0  0  0  0  0  0  0
    4.6111    2.2792    0.0000 C   0  0  0  0  0  0  0  0  0  0  0  0
    5.3256    2.6917    0.0000 C   0  0  0  0  0  0  0  0  0  0  0  0
    6.0400    2.2792    0.0000 C   0  0  0  0  0  0  0  0  0  0  0  0
    6.0400    1.4542    0.0000 C   0  0  0  0  0  0  0  0  0  0  0  0
    5.3256    1.0417    0.0000 C   0  0  0  0  0  0  0  0  0  0  0  0
    5.3256    0.2167    0.0000 C   0  0  0  0  0  0  0  0  0  0  0  0
    6.0400   -0.1958    0.0000 C   0  0  0  0  0  0  0  0  0  0  0  0
    6.0400   -1.0208    0.0000 C   0  0  0  0  0  0  0  0  0  0  0  0
    5.3256   -1.4333    0.0000 C   0  0  0  0  0  0  0  0  0  0  0  0
   -0.4125    0.0000    0.0000 Cl  0  5  0  0  0  0  0  0  0  0  0  0
  2  3  2  0  0  0  0
  3  4  1  0  0  0  0
  4  5  1  0  0  0  0
  5  6  1  0  0  0  0
  6  7  2  0  0  0  0
  7  8  1  0  0  0  0
  8  9  1  0  0  0  0
  9 10  1  0  0  0  0
  6 10  1  0  0  0  0
  4 11  1  0  0  0  0
 11 12  1  0  0  0  0
 12 13  2  0  0  0  0
 13 14  1  0  0  0  0
 14 15  2  0  0  0  0
 15 16  1  0  0  0  0
 16 17  2  0  0  0  0
 12 17  1  0  0  0  0
  3 18  1  0  0  0  0
 18 19  2  0  0  0  0
 19 20  1  0  0  0  0
 20 21  2  0  0  0  0
  2 21  1  0  0  0  0
M  CHG  2   1   1  22  -1
M  END
>  <Name>
Antazoline HCl

>  <CAS>
2508-72-7

>  <Formula>
C17H19N3.HCl

>  <MolWt>
301.82 

>  <Bioactivity>
Antazoline HCl is a first generation antihistamine, binding to the histamine H1 receptor and blocking the action of endogenous histamine.

>  <Pathways>
Neuroscience

>  <Target>
Histamine Receptor

>  <Receptor>
Histamine H1 receptor

>  <Reference>
1. Milhaud D, et al. Neuroscience, 2003, 120(2), 475-484.

$$$$
57470-78-7
  Mrv1561503291623562D          

 29 27  0  0  0  0            999 V2000
    0.4125    0.0000    0.0000 H   0  3  0  0  0  0  0  0  0  0  0  0
    8.4854    1.3139    0.0000 C   0  0  0  0  0  0  0  0  0  0  0  0
    9.1999    0.9014    0.0000 C   0  0  0  0  0  0  0  0  0  0  0  0
    9.1999    0.0764    0.0000 C   0  0  0  0  0  0  0  0  0  0  0  0
    8.4854   -0.3361    0.0000 C   0  0  0  0  0  0  0  0  0  0  0  0
    7.7709    0.0764    0.0000 C   0  0  0  0  0  0  0  0  0  0  0  0
    7.7709    0.9014    0.0000 C   0  0  0  0  0  0  0  0  0  0  0  0
    7.0565    1.3139    0.0000 O   0  0  0  0  0  0  0  0  0  0  0  0
    6.3420    0.9014    0.0000 C   0  0  0  0  0  0  0  0  0  0  0  0
    5.6275    1.3139    0.0000 C   0  0  0  0  0  0  0  0  0  0  0  0
    5.6275    2.1389    0.0000 O   0  0  0  0  0  0  0  0  0  0  0  0
    4.9131    0.9014    0.0000 C   0  0  0  0  0  0  0  0  0  0  0  0
    4.1986    1.3139    0.0000 N   0  0  0  0  0  0  0  0  0  0  0  0
    3.4841    0.9014    0.0000 C   0  0  0  0  0  0  0  0  0  0  0  0
    2.7696    0.4889    0.0000 C   0  0  0  0  0  0  0  0  0  0  0  0
    3.8966    0.1869    0.0000 C   0  0  0  0  0  0  0  0  0  0  0  0
    3.0716    1.6159    0.0000 C   0  0  0  0  0  0  0  0  0  0  0  0
    7.0565   -0.3361    0.0000 C   0  0  0  0  0  0  0  0  0  0  0  0
    6.3420    0.0764    0.0000 O   0  0  0  0  0  0  0  0  0  0  0  0
    7.0565   -1.1611    0.0000 C   0  0  0  0  0  0  0  0  0  0  0  0
    9.9144   -0.3361    0.0000 N   0  0  0  0  0  0  0  0  0  0  0  0
    9.9144   -1.1611    0.0000 C   0  0  0  0  0  0  0  0  0  0  0  0
    9.1999   -1.5736    0.0000 O   0  0  0  0  0  0  0  0  0  0  0  0
   10.6288   -1.5736    0.0000 N   0  0  0  0  0  0  0  0  0  0  0  0
   10.6288   -2.3986    0.0000 C   0  0  0  0  0  0  0  0  0  0  0  0
   11.3433   -2.8111    0.0000 C   0  0  0  0  0  0  0  0  0  0  0  0
   11.3433   -1.1611    0.0000 C   0  0  0  0  0  0  0  0  0  0  0  0
   12.0578   -1.5736    0.0000 C   0  0  0  0  0  0  0  0  0  0  0  0
   -0.4125    0.0000    0.0000 Cl  0  5  0  0  0  0  0  0  0  0  0  0
  2  3  2  0  0  0  0
  3  4  1  0  0  0  0
  4  5  2  0  0  0  0
  5  6  1  0  0  0  0
  6  7  2  0  0  0  0
  2  7  1  0  0  0  0
  7  8  1  0  0  0  0
  8  9  1  0  0  0  0
  9 10  1  0  0  0  0
 10 11  1  0  0  0  0
 10 12  1  0  0  0  0
 12 13  1  0  0  0  0
 13 14  1  0  0  0  0
 14 15  1  0  0  0  0
 14 16  1  0  0  0  0
 14 17  1  0  0  0  0
  6 18  1  0  0  0  0
 18 19  2  0  0  0  0
 18 20  1  0  0  0  0
  4 21  1  0  0  0  0
 21 22  1  0  0  0  0
 22 23  2  0  0  0  0
 22 24  1  0  0  0  0
 24 25  1  0  0  0  0
 25 26  1  0  0  0  0
 24 27  1  0  0  0  0
 27 28  1  0  0  0  0
M  CHG  2   1   1  29  -1
M  END
>  <Name>
Celiprolol HCl

>  <CAS>
57470-78-7

>  <Formula>
C20H33N3O4.HCl

>  <MolWt>
415.96 

>  <Bioactivity>
A cardioselective beta-1 adrenergic antagonist that has intrinsic symopathomimetic activity. It is used in the management of ANGINA PECTORIS and HYPERTENSION. 

>  <Pathways>
GPCR/G Protein

>  <Target>
Adrenergic Receptor antagonist

>  <Receptor>
?-adrenergic receptor

>  <Reference>
1. Abdelkrim MA, et al. Can J Physiol Pharmacol. 2013 Oct;91(10):791-6. 

$$$$
65-28-1
  Mrv1561503291623562D          

 26 27  0  0  0  0            999 V2000
    0.0000   -0.8250    0.0000 C   0  0  0  0  0  0  0  0  0  0  0  0
    0.0000    0.0000    0.0000 S   0  0  0  0  0  0  0  0  0  0  0  0
    0.0000    0.8250    0.0000 O   0  0  0  0  0  0  0  0  0  0  0  0
    0.8250   -0.0000    0.0000 O   0  0  0  0  0  0  0  0  0  0  0  0
   -0.8250    0.0000    0.0000 O   0  0  0  0  0  0  0  0  0  0  0  0
    5.3256    1.4439    0.0000 C   0  0  0  0  0  0  0  0  0  0  0  0
    5.3256    2.2689    0.0000 C   0  0  0  0  0  0  0  0  0  0  0  0
    4.6111    2.6814    0.0000 O   0  0  0  0  0  0  0  0  0  0  0  0
    6.0400    2.6814    0.0000 C   0  0  0  0  0  0  0  0  0  0  0  0
    6.7545    2.2689    0.0000 C   0  0  0  0  0  0  0  0  0  0  0  0
    6.7545    1.4439    0.0000 C   0  0  0  0  0  0  0  0  0  0  0  0
    6.0400    1.0314    0.0000 C   0  0  0  0  0  0  0  0  0  0  0  0
    6.0400    0.2064    0.0000 N   0  0  0  0  0  0  0  0  0  0  0  0
    5.3256   -0.2061    0.0000 C   0  0  0  0  0  0  0  0  0  0  0  0
    5.3256   -1.0311    0.0000 C   0  0  0  0  0  0  0  0  0  0  0  0
    4.6111   -1.4436    0.0000 C   0  0  0  0  0  0  0  0  0  0  0  0
    3.8966   -1.0311    0.0000 C   0  0  0  0  0  0  0  0  0  0  0  0
    3.8966   -0.2061    0.0000 C   0  0  0  0  0  0  0  0  0  0  0  0
    4.6111    0.2064    0.0000 C   0  0  0  0  0  0  0  0  0  0  0  0
    3.1821   -1.4436    0.0000 C   0  0  0  0  0  0  0  0  0  0  0  0
    6.7545   -0.2061    0.0000 C   0  0  0  0  0  0  0  0  0  0  0  0
    6.7545   -1.0311    0.0000 C   0  0  0  0  0  0  0  0  0  0  0  0
    7.4219   -1.5160    0.0000 N   0  0  0  0  0  0  0  0  0  0  0  0
    7.1670   -2.3007    0.0000 C   0  0  0  0  0  0  0  0  0  0  0  0
    6.3420   -2.3007    0.0000 C   0  0  0  0  0  0  0  0  0  0  0  0
    6.0871   -1.5160    0.0000 N   0  0  0  0  0  0  0  0  0  0  0  0
  1  2  1  0  0  0  0
  2  3  2  0  0  0  0
  2  4  2  0  0  0  0
  2  5  1  0  0  0  0
  6  7  2  0  0  0  0
  7  8  1  0  0  0  0
  7  9  1  0  0  0  0
  9 10  2  0  0  0  0
 10 11  1  0  0  0  0
 11 12  2  0  0  0  0
  6 12  1  0  0  0  0
 12 13  1  0  0  0  0
 13 14  1  0  0  0  0
 14 15  2  0  0  0  0
 15 16  1  0  0  0  0
 16 17  2  0  0  0  0
 17 18  1  0  0  0  0
 18 19  2  0  0  0  0
 14 19  1  0  0  0  0
 17 20  1  0  0  0  0
 13 21  1  0  0  0  0
 21 22  1  0  0  0  0
 22 23  2  0  0  0  0
 23 24  1  0  0  0  0
 24 25  1  0  0  0  0
 25 26  1  0  0  0  0
 22 26  1  0  0  0  0
M  END
>  <Name>
Phentolamine mesilate

>  <CAS>
65-28-1

>  <Formula>
C17H19N3O.CH4O3S

>  <MolWt>
377.46 

>  <Bioactivity>
A nonselective alpha-adrenergic antagonist. It is used in the treatment of hypertension and hypertensive emergencies, pheochromocytoma, vasospasm of RAYNAUD DISEASE and frostbite, clonidine withdrawal syndrome, impotence, and peripheral vascular disease. 

>  <Pathways>
GPCR/G Protein

>  <Target>
Adrenergic Receptor antagonist

>  <Receptor>
Adrenergic Receptor

>  <Reference>
1. Giussani DA, et al. J Physiol. 1995 Jul 1;486 ( Pt 1):249-55. 

$$$$
51012-33-0
  Mrv1561503291623562D          

 24 22  0  0  0  0            999 V2000
    0.4125    0.0000    0.0000 H   0  3  0  0  0  0  0  0  0  0  0  0
    4.7216   -0.1299    0.0000 C   0  0  0  0  0  0  0  0  0  0  0  0
    3.8966   -0.1299    0.0000 C   0  0  0  0  0  0  0  0  0  0  0  0
    3.4841   -0.8444    0.0000 S   0  0  0  0  0  0  0  0  0  0  0  0
    3.0716   -1.5588    0.0000 O   0  0  0  0  0  0  0  0  0  0  0  0
    4.1986   -1.2569    0.0000 O   0  0  0  0  0  0  0  0  0  0  0  0
    2.7696   -0.4319    0.0000 C   0  0  0  0  0  0  0  0  0  0  0  0
    3.4841    0.5846    0.0000 C   0  0  0  0  0  0  0  0  0  0  0  0
    3.8966    1.2990    0.0000 C   0  0  0  0  0  0  0  0  0  0  0  0
    4.7216    1.2990    0.0000 C   0  0  0  0  0  0  0  0  0  0  0  0
    5.1341    0.5846    0.0000 C   0  0  0  0  0  0  0  0  0  0  0  0
    5.9591    0.5846    0.0000 C   0  0  0  0  0  0  0  0  0  0  0  0
    6.3716    1.2990    0.0000 O   0  0  0  0  0  0  0  0  0  0  0  0
    6.3716   -0.1299    0.0000 N   0  0  0  0  0  0  0  0  0  0  0  0
    7.1966   -0.1299    0.0000 C   0  0  0  0  0  0  0  0  0  0  0  0
    7.6091   -0.8444    0.0000 C   0  0  0  0  0  0  0  0  0  0  0  0
    8.4341   -0.8444    0.0000 N   0  0  0  0  0  0  0  0  0  0  0  0
    8.8466   -1.5588    0.0000 C   0  0  0  0  0  0  0  0  0  0  0  0
    9.6716   -1.5588    0.0000 C   0  0  0  0  0  0  0  0  0  0  0  0
    8.8466   -0.1299    0.0000 C   0  0  0  0  0  0  0  0  0  0  0  0
    9.6716   -0.1299    0.0000 C   0  0  0  0  0  0  0  0  0  0  0  0
    5.1341    2.0135    0.0000 O   0  0  0  0  0  0  0  0  0  0  0  0
    5.9591    2.0135    0.0000 C   0  0  0  0  0  0  0  0  0  0  0  0
   -0.4125    0.0000    0.0000 Cl  0  5  0  0  0  0  0  0  0  0  0  0
  2  3  2  0  0  0  0
  3  4  1  0  0  0  0
  4  5  2  0  0  0  0
  4  6  2  0  0  0  0
  4  7  1  0  0  0  0
  3  8  1  0  0  0  0
  8  9  2  0  0  0  0
  9 10  1  0  0  0  0
 10 11  2  0  0  0  0
  2 11  1  0  0  0  0
 11 12  1  0  0  0  0
 12 13  2  0  0  0  0
 12 14  1  0  0  0  0
 14 15  1  0  0  0  0
 15 16  1  0  0  0  0
 16 17  1  0  0  0  0
 17 18  1  0  0  0  0
 18 19  1  0  0  0  0
 17 20  1  0  0  0  0
 20 21  1  0  0  0  0
 10 22  1  0  0  0  0
 22 23  1  0  0  0  0
M  CHG  2   1   1  24  -1
M  END
>  <Name>
Tiapride HCl

>  <CAS>
51012-33-0

>  <Formula>
C15H24N2O4S.HCl

>  <MolWt>
447.83 

>  <Bioactivity>
Tiapride is a drug that selectively blocks D2 and D3 dopamine receptors in the brain. It is used to treat a variety of neurological and psychiatric disorders including dyskinesia, alcohol withdrawal syndrome, negative symptoms of psychosis, and agitation and aggression in the elderly.

>  <Pathways>
Neuroscience

>  <Target>
Dopamine Receptor antagonist

>  <Receptor>
Dopamine receptors D2, D3

>  <Reference>
1. Scatton B, et al. Eur Psychiatry. 2001 Jan;16 Suppl 1:29s-34s.

$$$$
T1293
  Mrv1561503291623562D          

 27 30  0  0  0  0            999 V2000
    0.0000   -1.6500    0.0000 C   0  0  0  0  0  0  0  0  0  0  0  0
    0.7145   -1.2375    0.0000 C   0  0  0  0  0  0  0  0  0  0  0  0
    0.7145   -0.4125    0.0000 C   0  0  0  0  0  0  0  0  0  0  0  0
   -0.0000    0.0000    0.0000 C   0  0  0  0  0  0  0  0  0  0  0  0
   -0.7145   -0.4125    0.0000 C   0  0  0  0  0  0  0  0  0  0  0  0
   -0.7145   -1.2375    0.0000 C   0  0  0  0  0  0  0  0  0  0  0  0
   -1.4289   -1.6500    0.0000 F   0  0  0  0  0  0  0  0  0  0  0  0
   -1.4289   -0.0000    0.0000 N   0  0  0  0  0  0  0  0  0  0  0  0
   -2.1434   -0.4125    0.0000 C   0  0  0  0  0  0  0  0  0  0  0  0
   -2.8579   -0.0000    0.0000 C   0  0  0  0  0  0  0  0  0  0  0  0
   -2.8579    0.8250    0.0000 N   0  0  0  0  0  0  0  0  0  0  0  0
   -2.1434    1.2375    0.0000 C   0  0  0  0  0  0  0  0  0  0  0  0
   -1.4289    0.8250    0.0000 C   0  0  0  0  0  0  0  0  0  0  0  0
   -3.5724   -0.4125    0.0000 C   0  0  0  0  0  0  0  0  0  0  0  0
   -0.0000    0.8250    0.0000 O   0  0  0  0  0  0  0  0  0  0  0  0
   -0.7145    1.2375    0.0000 C   0  0  0  0  0  0  0  0  0  0  0  0
    1.4289    0.0000    0.0000 N   0  0  0  0  0  0  0  0  0  0  0  0
    1.4289    0.8250    0.0000 C   0  0  0  0  0  0  0  0  0  0  0  0
    1.0164    1.5395    0.0000 C   0  0  0  0  0  0  0  0  0  0  0  0
    1.8414    1.5395    0.0000 C   0  0  0  0  0  0  0  0  0  0  0  0
    2.1434   -0.4125    0.0000 C   0  0  0  0  0  0  0  0  0  0  0  0
    2.1434   -1.2375    0.0000 C   0  0  0  0  0  0  0  0  0  0  0  0
    2.8579   -1.6500    0.0000 C   0  0  0  0  0  0  0  0  0  0  0  0
    3.5724   -1.2375    0.0000 O   0  0  0  0  0  0  0  0  0  0  0  0
    2.8579   -2.4750    0.0000 O   0  0  0  0  0  0  0  0  0  0  0  0
    1.4289   -1.6500    0.0000 C   0  0  0  0  0  0  0  0  0  0  0  0
    1.4289   -2.4750    0.0000 O   0  0  0  0  0  0  0  0  0  0  0  0
  1  2  2  0  0  0  0
  2  3  1  0  0  0  0
  3  4  2  0  0  0  0
  4  5  1  0  0  0  0
  5  6  2  0  0  0  0
  1  6  1  0  0  0  0
  6  7  1  0  0  0  0
  5  8  1  0  0  0  0
  8  9  1  0  0  0  0
  9 10  1  0  0  0  0
 10 11  1  0  0  0  0
 11 12  1  0  0  0  0
 12 13  1  0  0  0  0
  8 13  1  0  0  0  0
 10 14  1  0  0  0  0
  4 15  1  0  0  0  0
 15 16  1  0  0  0  0
  3 17  1  0  0  0  0
 17 18  1  0  0  0  0
 18 19  1  0  0  0  0
 19 20  1  0  0  0  0
 18 20  1  0  0  0  0
 17 21  1  0  0  0  0
 21 22  2  0  0  0  0
 22 23  1  0  0  0  0
 23 24  1  0  0  0  0
 23 25  2  0  0  0  0
 22 26  1  0  0  0  0
  2 26  1  0  0  0  0
 26 27  2  0  0  0  0
M  END
>  <Name>
GATIFLOXACIN

>  <CAS>
112811-59-3

>  <Formula>
C19H22FN3O4

>  <MolWt>
375.40 

>  <Bioactivity>
Gatifloxacin is an antibiotic of the fourth-generation fluoroquinolone family, that like other members of that family, inhibits the bacterial enzymes DNA gyrase and topoisomerase IV. Bristol-Myers Squibb introduced Gatifloxacin in 1999 under the proprietary name Tequin® for the treatment of respiratory tract infections, having licensed the medication from Kyorin Pharmaceutical Company of Japan. Allergan produces an eye-drop formulation called Zymar®. Gatifloxacin is available as tablets and in various aqueous solutions for intravenous therapy.  

>  <Pathways>
DNA Damage/DNA Repair

>  <Target>
Topoisomerase inhibitor

>  <Receptor>
Topoisomerase IV

>  <Reference>
1. Rafii F, et al. Antimicrob Agents Chemother. 2005 Feb;49(2):488-92. 

$$$$
57248-88-1
  Mrv1561503291623562D          

 15 12  0  0  0  0            999 V2000
    2.4750   -0.8250    0.0000 C   0  0  0  0  0  0  0  0  0  0  0  0
    2.4750    0.0000    0.0000 C   0  0  0  0  0  0  0  0  0  0  0  0
    3.3000    0.0000    0.0000 P   0  0  0  0  0  0  0  0  0  0  0  0
    3.3000   -0.8250    0.0000 O   0  5  0  0  0  0  0  0  0  0  0  0
    3.3000    0.8250    0.0000 O   0  0  0  0  0  0  0  0  0  0  0  0
    4.1250    0.0000    0.0000 O   0  0  0  0  0  0  0  0  0  0  0  0
    1.6500    0.0000    0.0000 P   0  0  0  0  0  0  0  0  0  0  0  0
    0.8250    0.0000    0.0000 O   0  5  0  0  0  0  0  0  0  0  0  0
    1.6500   -0.8250    0.0000 O   0  0  0  0  0  0  0  0  0  0  0  0
    1.6500    0.8250    0.0000 O   0  0  0  0  0  0  0  0  0  0  0  0
    2.4750    0.8250    0.0000 O   0  0  0  0  0  0  0  0  0  0  0  0
    1.7605   -1.2375    0.0000 C   0  0  0  0  0  0  0  0  0  0  0  0
    1.7605   -2.0625    0.0000 N   0  0  0  0  0  0  0  0  0  0  0  0
    3.3000   -1.6500    0.0000 Na  0  3  0  0  0  0  0  0  0  0  0  0
    0.0000    0.0000    0.0000 Na  0  3  0  0  0  0  0  0  0  0  0  0
  1  2  1  0  0  0  0
  2  3  1  0  0  0  0
  3  4  1  0  0  0  0
  3  5  2  0  0  0  0
  3  6  1  0  0  0  0
  2  7  1  0  0  0  0
  7  8  1  0  0  0  0
  7  9  2  0  0  0  0
  7 10  1  0  0  0  0
  2 11  1  0  0  0  0
  1 12  1  0  0  0  0
 12 13  1  0  0  0  0
M  CHG  4   4  -1   8  -1  14   1  15   1
M  END
>  <Name>
Pamidronate disodium salt

>  <CAS>
57248-88-1

>  <Formula>
C3H9NNa2O7P2.5H2O

>  <MolWt>
369.10 

>  <Bioactivity>
A bisphosphonate antiresorptive agent and a bone resorption inhibitor.

>  <Pathways>
Metabolism

>  <Target>
HAP antagonist

>  <Receptor>
FPPS;HAP

>  <Reference>
1. Bergstrom JD, et al. Arch Biochem Biophys. 2000 Jan 1;373(1):231-41. 

$$$$
103639-04-9
  Mrv1561503291623562D          

 26 25  0  0  0  0            999 V2000
    0.4125    0.0000    0.0000 H   0  3  0  0  0  0  0  0  0  0  0  0
    7.1127    0.0644    0.0000 C   0  0  0  0  0  0  0  0  0  0  0  0
    7.9197   -0.1071    0.0000 C   0  0  0  0  0  0  0  0  0  0  0  0
    8.1746   -0.8917    0.0000 C   0  0  0  0  0  0  0  0  0  0  0  0
    7.6226   -1.5048    0.0000 C   0  0  0  0  0  0  0  0  0  0  0  0
    6.8156   -1.3333    0.0000 C   0  0  0  0  0  0  0  0  0  0  0  0
    6.5607   -0.5486    0.0000 C   0  0  0  0  0  0  0  0  0  0  0  0
    5.7357   -0.5486    0.0000 C   0  0  0  0  0  0  0  0  0  0  0  0
    5.4807   -1.3333    0.0000 C   0  0  0  0  0  0  0  0  0  0  0  0
    6.1482   -1.8182    0.0000 N   0  0  0  0  0  0  0  0  0  0  0  0
    6.1482   -2.6432    0.0000 C   0  0  0  0  0  0  0  0  0  0  0  0
    4.6738   -1.5048    0.0000 C   0  0  0  0  0  0  0  0  0  0  0  0
    4.1217   -0.8917    0.0000 C   0  0  0  0  0  0  0  0  0  0  0  0
    4.3767   -0.1071    0.0000 C   0  0  0  0  0  0  0  0  0  0  0  0
    5.1836    0.0644    0.0000 C   0  0  0  0  0  0  0  0  0  0  0  0
    5.4386    0.8491    0.0000 O   0  0  0  0  0  0  0  0  0  0  0  0
    3.8246    0.5060    0.0000 C   0  0  0  0  0  0  0  0  0  0  0  0
    4.0796    1.2906    0.0000 N   0  0  0  0  0  0  0  0  0  0  0  0
    3.5946    1.9581    0.0000 C   0  0  0  0  0  0  0  0  0  0  0  0
    4.0796    2.6255    0.0000 N   0  0  0  0  0  0  0  0  0  0  0  0
    4.8642    2.3706    0.0000 C   0  0  0  0  0  0  0  0  0  0  0  0
    4.8642    1.5456    0.0000 C   0  0  0  0  0  0  0  0  0  0  0  0
    2.7696    1.9581    0.0000 C   0  0  0  0  0  0  0  0  0  0  0  0
   -0.4125    0.0000    0.0000 Cl  0  5  0  0  0  0  0  0  0  0  0  0
    0.0000   -4.2932    0.0000 O   0  0  0  0  0  0  0  0  0  0  0  0
    2.3571   -4.2932    0.0000 O   0  0  0  0  0  0  0  0  0  0  0  0
  2  3  2  0  0  0  0
  3  4  1  0  0  0  0
  4  5  2  0  0  0  0
  5  6  1  0  0  0  0
  6  7  2  0  0  0  0
  2  7  1  0  0  0  0
  7  8  1  0  0  0  0
  8  9  2  0  0  0  0
  9 10  1  0  0  0  0
  6 10  1  0  0  0  0
 10 11  1  0  0  0  0
  9 12  1  0  0  0  0
 12 13  1  0  0  0  0
 13 14  1  0  0  0  0
 14 15  1  0  0  0  0
  8 15  1  0  0  0  0
 15 16  2  0  0  0  0
 14 17  1  0  0  0  0
 17 18  1  0  0  0  0
 18 19  1  0  0  0  0
 19 20  2  0  0  0  0
 20 21  1  0  0  0  0
 21 22  2  0  0  0  0
 18 22  1  0  0  0  0
 19 23  1  0  0  0  0
M  CHG  2   1   1  24  -1
M  END
>  <Name>
Ondansetron HCl

>  <CAS>
103639-04-9

>  <Formula>
C18H19N3O.HCl.2H2O

>  <MolWt>
365.86 

>  <Bioactivity>
Ondansetron is a serotonin 5-HT receptor antagonist used mainly as anantiemetic (to treat nausea and vomiting), often following chemotherapy.

>  <Pathways>
Neuroscience

>  <Target>
5-HT Receptor antagonist; Opioid Receptor

>  <Receptor>
5-HT Receptor?Mu-type opioid receptor

>  <Reference>
1. Arcioni R, et al. Anesth Analg. 2002 Jun;94(6):1553-7, 

$$$$
T1481
  Mrv1561503291623562D          

 11 10  0  0  1  0            999 V2000
    4.4270    2.5559    0.0000 C   0  0  2  0  0  0  0  0  0  0  0  0
    3.7125    2.1434    0.0000 C   0  0  0  0  0  0  0  0  0  0  0  0
    2.9980    2.5559    0.0000 O   0  0  0  0  0  0  0  0  0  0  0  0
    3.7125    1.3184    0.0000 O   0  0  0  0  0  0  0  0  0  0  0  0
    5.1414    2.1434    0.0000 C   0  0  0  0  0  0  0  0  0  0  0  0
    5.8559    2.5559    0.0000 S   0  0  0  0  0  0  0  0  0  0  0  0
    6.5704    2.1434    0.0000 C   0  0  0  0  0  0  0  0  0  0  0  0
    7.2849    2.5559    0.0000 C   0  0  0  0  0  0  0  0  0  0  0  0
    7.9993    2.1434    0.0000 C   0  0  0  0  0  0  0  0  0  0  0  0
    8.7138    2.5559    0.0000 O   0  0  0  0  0  0  0  0  0  0  0  0
    4.4270    3.3809    0.0000 N   0  0  0  0  0  0  0  0  0  0  0  0
  1  2  1  0  0  0  0
  2  3  1  0  0  0  0
  2  4  2  0  0  0  0
  1  5  1  0  0  0  0
  5  6  1  0  0  0  0
  6  7  1  0  0  0  0
  7  8  1  0  0  0  0
  8  9  1  0  0  0  0
  9 10  1  0  0  0  0
  1 11  1  1  0  0  0
M  END
>  <Name>
Fudosteine

>  <CAS>
13189-98-5

>  <Formula>
C6H13NO3S

>  <MolWt>
179.23 

>  <Bioactivity>
Fudosteine is a novel mucoactive agent and a MUC5AC mucin hypersecretion inhibitor. 

>  <Pathways>
Immunology/Inflammation

>  <Target>
Immunologic Factors

>  <Receptor>
MUC5AC mucin

>  <Reference>
1. Rhee CK, et al. Eur Respir J. 2008 Nov;32(5):1195-202. 

$$$$
59729-32-7
  Mrv1561503291623562D          

 26 26  0  0  0  0            999 V2000
    0.4125    0.0000    0.0000 H   0  3  0  0  0  0  0  0  0  0  0  0
    4.7221   -0.1591    0.0000 C   0  0  0  0  0  0  0  0  0  0  0  0
    3.9348    0.0877    0.0000 C   0  0  0  0  0  0  0  0  0  0  0  0
    3.7549    0.8928    0.0000 C   0  0  0  0  0  0  0  0  0  0  0  0
    4.3621    1.4512    0.0000 C   0  0  0  0  0  0  0  0  0  0  0  0
    5.1494    1.2045    0.0000 C   0  0  0  0  0  0  0  0  0  0  0  0
    5.3294    0.3994    0.0000 C   0  0  0  0  0  0  0  0  0  0  0  0
    6.1507    0.3217    0.0000 C   0  0  0  0  0  0  0  0  0  0  0  0
    6.4783    1.0789    0.0000 O   0  0  0  0  0  0  0  0  0  0  0  0
    5.8595    1.6245    0.0000 C   0  0  0  0  0  0  0  0  0  0  0  0
    6.1680   -0.5031    0.0000 C   0  0  0  0  0  0  0  0  0  0  0  0
    6.8909   -0.9005    0.0000 C   0  0  0  0  0  0  0  0  0  0  0  0
    6.9082   -1.7254    0.0000 C   0  0  0  0  0  0  0  0  0  0  0  0
    6.2025   -2.1527    0.0000 C   0  0  0  0  0  0  0  0  0  0  0  0
    6.2198   -2.9776    0.0000 F   0  0  0  0  0  0  0  0  0  0  0  0
    5.4796   -1.7553    0.0000 C   0  0  0  0  0  0  0  0  0  0  0  0
    5.4623   -0.9305    0.0000 C   0  0  0  0  0  0  0  0  0  0  0  0
    6.8652   -0.0908    0.0000 C   0  0  0  0  0  0  0  0  0  0  0  0
    7.5796    0.3217    0.0000 C   0  0  0  0  0  0  0  0  0  0  0  0
    8.2941   -0.0908    0.0000 C   0  0  0  0  0  0  0  0  0  0  0  0
    9.0086    0.3217    0.0000 N   0  0  0  0  0  0  0  0  0  0  0  0
    9.0086    1.1467    0.0000 C   0  0  0  0  0  0  0  0  0  0  0  0
    9.7230   -0.0908    0.0000 C   0  0  0  0  0  0  0  0  0  0  0  0
    2.9676    1.1395    0.0000 C   0  0  0  0  0  0  0  0  0  0  0  0
    2.1804    1.3862    0.0000 N   0  0  0  0  0  0  0  0  0  0  0  0
   -0.4125    0.0000    0.0000 Br  0  5  0  0  0  0  0  0  0  0  0  0
  2  3  2  0  0  0  0
  3  4  1  0  0  0  0
  4  5  2  0  0  0  0
  5  6  1  0  0  0  0
  6  7  2  0  0  0  0
  2  7  1  0  0  0  0
  7  8  1  0  0  0  0
  8  9  1  0  0  0  0
  9 10  1  0  0  0  0
  6 10  1  0  0  0  0
  8 11  1  0  0  0  0
 11 12  2  0  0  0  0
 12 13  1  0  0  0  0
 13 14  2  0  0  0  0
 14 15  1  0  0  0  0
 14 16  1  0  0  0  0
 16 17  2  0  0  0  0
 11 17  1  0  0  0  0
  8 18  1  0  0  0  0
 18 19  1  0  0  0  0
 19 20  1  0  0  0  0
 20 21  1  0  0  0  0
 21 22  1  0  0  0  0
 21 23  1  0  0  0  0
  4 24  1  0  0  0  0
 24 25  3  0  0  0  0
M  CHG  2   1   1  26  -1
M  END
>  <Name>
Citalopram HBr

>  <CAS>
59729-32-7

>  <Formula>
C20H21FN2O.HBr

>  <MolWt>
405.31 

>  <Bioactivity>
Citalopram hydrobromide belongs to a class of antidepressant agents known as selective serotonin-reuptake inhibitors (SSRIs). Citalopram and its N-demethylated metabolites exist as a racemic mixture but its effects are largely due to the S-enantiomer, S-citalopram and S-demthylcitalopram. Despite distinct structural differences between compounds in this class, SSRIs possess similar pharmacological activity. As with other antidepressant agents, several weeks of therapy may be required before a clinical effect is seen. SSRIs are potent inhibitors of neuronal serotonin reuptake. They have little to no effect on norepinephrine or dopamine reuptake and do not antagonize ?- or ?-adrenergic, dopamine D2 or histamine H1 receptors. During acute use, SSRIs block serotonin reuptake and increase serotonin stimulation of somatodendritic 5-HT1A and terminal autoreceptors. Chronic use leads to desensitization of somatodendritic 5-HT1A and terminal autoreceptors. The overall clinical effect of increased mood and decreased anxiety is thought to be due to adaptive changes in neuronal function that leads to enhanced serotonergic neurotransmission. Side effects include dry mouth, nausea, dizziness, drowsiness, sexual dysfunction and headache. Side effects generally occur within the first two weeks of therapy and are usually less severe and frequent than those observed with tricyclic antidepressants. Citalopram is approved for treatment of depression. Unlabeled indications include mild dementia-associated agitation in nonpsychotic patients, smoking cessation, ethanol abuse, obsessive-compulsive disorder (OCD) in children, and diabetic neuropathy. Citalopram has the fewest drug-drug interactions of the SSRIs. 

>  <Pathways>
Neuroscience

>  <Target>
Serotonin uptake inhibitor;AChR antagonist;Adrenergic Receptor antagonist;Histamine Receptor

>  <Receptor>
Sodium-dependent serotonin transporter;Muscarinic AChR;?-adrenergic receptor;Histamine H1 receptor

>  <Reference>
1. Bareggi SR, et al. Expert Opin Drug Metab Toxicol. 2007 Oct;3(5):741-53

$$$$
88678-31-3
  Mrv1561503291623562D          

 23 25  0  0  0  0            999 V2000
   -0.0000    0.0000    0.0000 C   0  0  0  0  0  0  0  0  0  0  0  0
   -0.7145   -0.4125    0.0000 C   0  0  0  0  0  0  0  0  0  0  0  0
   -1.4289    0.0000    0.0000 O   0  0  0  0  0  0  0  0  0  0  0  0
   -2.1434   -0.4125    0.0000 C   0  0  0  0  0  0  0  0  0  0  0  0
   -2.8579   -0.0000    0.0000 N   0  0  0  0  0  0  0  0  0  0  0  0
   -3.5724   -0.4125    0.0000 C   0  0  0  0  0  0  0  0  0  0  0  0
   -3.5724   -1.2375    0.0000 C   0  0  0  0  0  0  0  0  0  0  0  0
   -4.2868   -1.6500    0.0000 C   0  0  0  0  0  0  0  0  0  0  0  0
   -5.0013   -1.2375    0.0000 C   0  0  0  0  0  0  0  0  0  0  0  0
   -5.0013   -0.4125    0.0000 C   0  0  0  0  0  0  0  0  0  0  0  0
   -4.2868   -0.0000    0.0000 N   0  0  0  0  0  0  0  0  0  0  0  0
   -5.7158   -0.0000    0.0000 O   0  0  0  0  0  0  0  0  0  0  0  0
   -6.4302   -0.4125    0.0000 C   0  0  0  0  0  0  0  0  0  0  0  0
   -2.8579    0.8250    0.0000 C   0  0  0  0  0  0  0  0  0  0  0  0
   -2.1434   -1.2375    0.0000 S   0  0  0  0  0  0  0  0  0  0  0  0
   -0.7145   -1.2375    0.0000 C   0  0  0  0  0  0  0  0  0  0  0  0
   -0.0000   -1.6500    0.0000 C   0  0  0  0  0  0  0  0  0  0  0  0
    0.7145   -1.2375    0.0000 C   0  0  0  0  0  0  0  0  0  0  0  0
    0.7145   -0.4125    0.0000 C   0  0  0  0  0  0  0  0  0  0  0  0
    1.4289    0.0000    0.0000 C   0  0  0  0  0  0  0  0  0  0  0  0
    2.1434   -0.4125    0.0000 C   0  0  0  0  0  0  0  0  0  0  0  0
    2.1434   -1.2375    0.0000 C   0  0  0  0  0  0  0  0  0  0  0  0
    1.4289   -1.6500    0.0000 C   0  0  0  0  0  0  0  0  0  0  0  0
  1  2  2  0  0  0  0
  2  3  1  0  0  0  0
  3  4  1  0  0  0  0
  4  5  1  0  0  0  0
  5  6  1  0  0  0  0
  6  7  2  0  0  0  0
  7  8  1  0  0  0  0
  8  9  2  0  0  0  0
  9 10  1  0  0  0  0
 10 11  2  0  0  0  0
  6 11  1  0  0  0  0
 10 12  1  0  0  0  0
 12 13  1  0  0  0  0
  5 14  1  0  0  0  0
  4 15  2  0  0  0  0
  2 16  1  0  0  0  0
 16 17  2  0  0  0  0
 17 18  1  0  0  0  0
 18 19  2  0  0  0  0
  1 19  1  0  0  0  0
 19 20  1  0  0  0  0
 20 21  1  0  0  0  0
 21 22  1  0  0  0  0
 22 23  1  0  0  0  0
 18 23  1  0  0  0  0
M  END
>  <Name>
Liranaftate

>  <CAS>
88678-31-3

>  <Formula>
C18H20N2O2S

>  <MolWt>
328.43 

>  <Bioactivity>
Liranaftate is a squalene epoxidase inhibitor with anti-fungicidal activities.

>  <Pathways>
Others

>  <Target>
Others

>  <Receptor>
squalene epoxidase

>  <Reference>
1. Maruyama N, et al. Med Mycol J. 2012;53(2):129-33.

$$$$
145202-66-0
  Mrv1561503291623562D          

 29 31  0  0  0  0            999 V2000
   -0.7145   -0.2292    0.0000 C   0  0  0  0  0  0  0  0  0  0  0  0
   -0.0000    0.1833    0.0000 C   0  0  0  0  0  0  0  0  0  0  0  0
    0.0000    1.0083    0.0000 C   0  0  0  0  0  0  0  0  0  0  0  0
   -0.7145    1.4208    0.0000 O   0  0  0  0  0  0  0  0  0  0  0  0
    0.7145    1.4208    0.0000 O   0  0  0  0  0  0  0  0  0  0  0  0
    0.7145   -0.2292    0.0000 C   0  0  0  0  0  0  0  0  0  0  0  0
    0.7145   -1.0542    0.0000 C   0  0  0  0  0  0  0  0  0  0  0  0
   -0.0000   -1.4667    0.0000 C   0  0  0  0  0  0  0  0  0  0  0  0
   -0.7145   -1.0542    0.0000 C   0  0  0  0  0  0  0  0  0  0  0  0
    6.6945    0.2141    0.0000 C   0  0  0  0  0  0  0  0  0  0  0  0
    7.4090   -0.1984    0.0000 C   0  0  0  0  0  0  0  0  0  0  0  0
    7.4090   -1.0234    0.0000 C   0  0  0  0  0  0  0  0  0  0  0  0
    6.6945   -1.4359    0.0000 C   0  0  0  0  0  0  0  0  0  0  0  0
    5.9801   -1.0234    0.0000 C   0  0  0  0  0  0  0  0  0  0  0  0
    5.9801   -0.1984    0.0000 C   0  0  0  0  0  0  0  0  0  0  0  0
    5.1954    0.0565    0.0000 C   0  0  0  0  0  0  0  0  0  0  0  0
    4.7105   -0.6109    0.0000 C   0  0  0  0  0  0  0  0  0  0  0  0
    5.1954   -1.2783    0.0000 N   0  0  0  0  0  0  0  0  0  0  0  0
    4.9405    0.8412    0.0000 C   0  0  0  0  0  0  0  0  0  0  0  0
    4.1335    1.0127    0.0000 C   0  0  0  0  0  0  0  0  0  0  0  0
    3.8786    1.7973    0.0000 N   0  0  0  0  0  0  0  0  0  0  0  0
    3.0716    1.9688    0.0000 C   0  0  0  0  0  0  0  0  0  0  0  0
    4.4306    2.4104    0.0000 C   0  0  0  0  0  0  0  0  0  0  0  0
    8.1235    0.2141    0.0000 C   0  0  0  0  0  0  0  0  0  0  0  0
    8.8379   -0.1984    0.0000 N   0  0  0  0  0  0  0  0  0  0  0  0
    9.5916    0.1372    0.0000 N   0  0  0  0  0  0  0  0  0  0  0  0
   10.1436   -0.4759    0.0000 C   0  0  0  0  0  0  0  0  0  0  0  0
    9.7311   -1.1904    0.0000 N   0  0  0  0  0  0  0  0  0  0  0  0
    8.9242   -1.0189    0.0000 C   0  0  0  0  0  0  0  0  0  0  0  0
  1  2  2  0  0  0  0
  2  3  1  0  0  0  0
  3  4  2  0  0  0  0
  3  5  1  0  0  0  0
  2  6  1  0  0  0  0
  6  7  2  0  0  0  0
  7  8  1  0  0  0  0
  8  9  2  0  0  0  0
  1  9  1  0  0  0  0
 10 11  2  0  0  0  0
 11 12  1  0  0  0  0
 12 13  2  0  0  0  0
 13 14  1  0  0  0  0
 14 15  2  0  0  0  0
 10 15  1  0  0  0  0
 15 16  1  0  0  0  0
 16 17  2  0  0  0  0
 17 18  1  0  0  0  0
 14 18  1  0  0  0  0
 16 19  1  0  0  0  0
 19 20  1  0  0  0  0
 20 21  1  0  0  0  0
 21 22  1  0  0  0  0
 21 23  1  0  0  0  0
 11 24  1  0  0  0  0
 24 25  1  0  0  0  0
 25 26  1  0  0  0  0
 26 27  2  0  0  0  0
 27 28  1  0  0  0  0
 28 29  2  0  0  0  0
 25 29  1  0  0  0  0
M  END
>  <Name>
Rizatriptan benzoate

>  <CAS>
145202-66-0

>  <Formula>
C22H25N5O2

>  <MolWt>
391.47 

>  <Bioactivity>
Nepafenac is a non-steroidal anti-inflammatory prodrug (NSAID) usually sold as a prescription eye drop. It is used to treat pain and inflammation associated with cataract surgery.  

>  <Pathways>
Neuroscience

>  <Target>
5-HT Receptor antagonist

>  <Receptor>
5-HT Receptor

>  <Reference>
1. Wellington K, Plosker GL. Drugs. 2002;62(10):1539-74. 

$$$$
T0239
  Mrv1561503291623562D          

 21 23  0  0  0  0            999 V2000
    3.2789    1.2375    0.0000 C   0  0  0  0  0  0  0  0  0  0  0  0
    3.9934    0.8250    0.0000 C   0  0  0  0  0  0  0  0  0  0  0  0
    3.9934    0.0000    0.0000 C   0  0  0  0  0  0  0  0  0  0  0  0
    3.2789   -0.4125    0.0000 C   0  0  0  0  0  0  0  0  0  0  0  0
    2.5645   -0.0000    0.0000 C   0  0  0  0  0  0  0  0  0  0  0  0
    2.5645    0.8250    0.0000 C   0  0  0  0  0  0  0  0  0  0  0  0
    1.7798    1.0799    0.0000 N   0  0  0  0  0  0  0  0  0  0  0  0
    1.2949    0.4125    0.0000 N   0  0  0  0  0  0  0  0  0  0  0  0
    1.7798   -0.2549    0.0000 C   0  0  0  0  0  0  0  0  0  0  0  0
    1.5249   -1.0396    0.0000 C   0  0  0  0  0  0  0  0  0  0  0  0
    2.0769   -1.6527    0.0000 O   0  0  0  0  0  0  0  0  0  0  0  0
    0.7179   -1.2111    0.0000 O   0  0  0  0  0  0  0  0  0  0  0  0
    1.5249    1.8646    0.0000 C   0  0  0  0  0  0  0  0  0  0  0  0
    2.0769    2.4777    0.0000 C   0  0  0  0  0  0  0  0  0  0  0  0
    2.8839    2.3061    0.0000 C   0  0  0  0  0  0  0  0  0  0  0  0
    3.4359    2.9192    0.0000 C   0  0  0  0  0  0  0  0  0  0  0  0
    3.1810    3.7038    0.0000 C   0  0  0  0  0  0  0  0  0  0  0  0
    2.3740    3.8754    0.0000 C   0  0  0  0  0  0  0  0  0  0  0  0
    1.8220    3.2623    0.0000 C   0  0  0  0  0  0  0  0  0  0  0  0
    1.0150    3.4338    0.0000 Cl  0  0  0  0  0  0  0  0  0  0  0  0
    3.7330    4.3169    0.0000 Cl  0  0  0  0  0  0  0  0  0  0  0  0
  1  2  2  0  0  0  0
  2  3  1  0  0  0  0
  3  4  2  0  0  0  0
  4  5  1  0  0  0  0
  5  6  2  0  0  0  0
  1  6  1  0  0  0  0
  6  7  1  0  0  0  0
  7  8  1  0  0  0  0
  8  9  2  0  0  0  0
  5  9  1  0  0  0  0
  9 10  1  0  0  0  0
 10 11  1  0  0  0  0
 10 12  2  0  0  0  0
  7 13  1  0  0  0  0
 13 14  1  0  0  0  0
 14 15  2  0  0  0  0
 15 16  1  0  0  0  0
 16 17  2  0  0  0  0
 17 18  1  0  0  0  0
 18 19  2  0  0  0  0
 14 19  1  0  0  0  0
 19 20  1  0  0  0  0
 17 21  1  0  0  0  0
M  END
>  <Name>
Lonidamine

>  <CAS>
50264-69-2

>  <Formula>
C15H10Cl2N2O2

>  <MolWt>
321.17 

>  <Bioactivity>
Lonidamine is an orally administered small molecule hexokinase inactivator.

>  <Pathways>
Enzyme

>  <Target>
Hexokinase inhibitor

>  <Receptor>
hexokinase

>  <Reference>
1. Floridi A, et al. J Natl Cancer Inst, 1981, 66(3), 497-499.

$$$$
T1036
  Mrv1561503291623562D          

 91 90  0  0  1  0            999 V2000
    0.7260    1.3058    0.0000 O   0  0  0  0  0  0  0  0  0  0  0  0
    0.7260    0.4808    0.0000 C   0  0  2  0  0  0  0  0  0  0  0  0
    0.0115    0.0683    0.0000 C   0  0  1  0  0  0  0  0  0  0  0  0
   -0.7030    0.4808    0.0000 O   0  0  0  0  0  0  0  0  0  0  0  0
    0.0115   -0.7567    0.0000 C   0  0  2  0  0  0  0  0  0  0  0  0
   -0.7030   -1.1692    0.0000 O   0  0  0  0  0  0  0  0  0  0  0  0
   -0.7030   -1.9942    0.0000 C   0  0  1  0  0  0  0  0  0  0  0  0
    0.0115   -2.4067    0.0000 O   0  0  0  0  0  0  0  0  0  0  0  0
    0.0115   -3.2317    0.0000 C   0  0  0  0  0  0  0  0  0  0  0  0
   -0.7030   -3.6442    0.0000 C   0  0  0  0  0  0  0  0  0  0  0  0
   -1.4174   -3.2317    0.0000 C   0  0  0  0  0  0  0  0  0  0  0  0
   -1.4174   -2.4067    0.0000 C   0  0  1  0  0  0  0  0  0  0  0  0
   -2.1319   -1.9942    0.0000 N   0  0  0  0  0  0  0  0  0  0  0  0
    0.7260   -3.6442    0.0000 C   0  0  0  0  0  0  0  0  0  0  0  0
    0.7260   -4.4692    0.0000 N   0  0  0  0  0  0  0  0  0  0  0  0
    0.7260   -1.1692    0.0000 C   0  0  1  0  0  0  0  0  0  0  0  0
    0.7260   -1.9942    0.0000 N   0  0  0  0  0  0  0  0  0  0  0  0
    1.4405   -0.7567    0.0000 C   0  0  0  0  0  0  0  0  0  0  0  0
    1.4405    0.0683    0.0000 C   0  0  1  0  0  0  0  0  0  0  0  0
    2.1549    0.4808    0.0000 N   0  0  0  0  0  0  0  0  0  0  0  0
    2.8694    0.0683    0.0000 C   0  0  0  0  0  0  0  0  0  0  0  0
    3.5839    0.4808    0.0000 C   0  0  0  0  0  0  0  0  0  0  0  0
    0.0115    1.7183    0.0000 C   0  0  1  0  0  0  0  0  0  0  0  0
   -0.7030    1.3058    0.0000 O   0  0  0  0  0  0  0  0  0  0  0  0
   -1.4174    1.7183    0.0000 C   0  0  0  0  0  0  0  0  0  0  0  0
   -1.4174    2.5433    0.0000 C   0  0  2  0  0  0  0  0  0  0  0  0
   -2.2299    2.4001    0.0000 O   0  0  0  0  0  0  0  0  0  0  0  0
   -0.7030    2.9558    0.0000 C   0  0  2  0  0  0  0  0  0  0  0  0
   -0.7030    3.7808    0.0000 N   0  0  0  0  0  0  0  0  0  0  0  0
    0.0115    4.1933    0.0000 C   0  0  0  0  0  0  0  0  0  0  0  0
    0.0115    2.5433    0.0000 C   0  0  1  0  0  0  0  0  0  0  0  0
    0.7260    2.9558    0.0000 O   0  0  0  0  0  0  0  0  0  0  0  0
   -1.6996    3.3186    0.0000 C   0  0  0  0  0  0  0  0  0  0  0  0
   10.2278    1.2617    0.0000 O   0  0  0  0  0  0  0  0  0  0  0  0
   10.9423    0.8492    0.0000 C   0  0  2  0  0  0  0  0  0  0  0  0
   10.9423    0.0242    0.0000 O   0  0  0  0  0  0  0  0  0  0  0  0
   10.2278   -0.3883    0.0000 C   0  0  2  0  0  0  0  0  0  0  0  0
    9.5134    0.0242    0.0000 C   0  0  1  0  0  0  0  0  0  0  0  0
    9.5134    0.8492    0.0000 O   0  0  0  0  0  0  0  0  0  0  0  0
    8.7989   -0.3883    0.0000 C   0  0  2  0  0  0  0  0  0  0  0  0
    8.0844    0.0242    0.0000 O   0  0  0  0  0  0  0  0  0  0  0  0
    7.3700   -0.3883    0.0000 C   0  0  1  0  0  0  0  0  0  0  0  0
    7.3700   -1.2133    0.0000 O   0  0  0  0  0  0  0  0  0  0  0  0
    6.6555   -1.6258    0.0000 C   0  0  0  0  0  0  0  0  0  0  0  0
    5.9410   -1.2133    0.0000 C   0  0  0  0  0  0  0  0  0  0  0  0
    5.9410   -0.3883    0.0000 C   0  0  0  0  0  0  0  0  0  0  0  0
    6.6555    0.0242    0.0000 C   0  0  1  0  0  0  0  0  0  0  0  0
    6.6555    0.8492    0.0000 N   0  0  0  0  0  0  0  0  0  0  0  0
    6.6555   -2.4508    0.0000 C   0  0  0  0  0  0  0  0  0  0  0  0
    5.9410   -2.8633    0.0000 N   0  0  0  0  0  0  0  0  0  0  0  0
    8.7989   -1.2133    0.0000 C   0  0  1  0  0  0  0  0  0  0  0  0
    8.0844   -1.6258    0.0000 N   0  0  0  0  0  0  0  0  0  0  0  0
    9.5134   -1.6258    0.0000 C   0  0  0  0  0  0  0  0  0  0  0  0
   10.2278   -1.2133    0.0000 C   0  0  1  0  0  0  0  0  0  0  0  0
   10.9423   -1.6258    0.0000 N   0  0  0  0  0  0  0  0  0  0  0  0
   10.9423   -2.4508    0.0000 C   0  0  0  0  0  0  0  0  0  0  0  0
   11.6568   -2.8633    0.0000 C   0  0  0  0  0  0  0  0  0  0  0  0
   11.6568    1.2617    0.0000 C   0  0  2  0  0  0  0  0  0  0  0  0
   12.3713    0.8492    0.0000 O   0  0  0  0  0  0  0  0  0  0  0  0
   11.6568    2.0867    0.0000 C   0  0  1  0  0  0  0  0  0  0  0  0
   12.3713    2.4992    0.0000 N   0  0  0  0  0  0  0  0  0  0  0  0
   13.0857    2.0867    0.0000 C   0  0  0  0  0  0  0  0  0  0  0  0
   10.9423    2.4992    0.0000 C   0  0  1  0  0  0  0  0  0  0  0  0
   11.4726    3.1312    0.0000 O   0  0  0  0  0  0  0  0  0  0  0  0
   10.2278    2.0867    0.0000 C   0  0  0  0  0  0  0  0  0  0  0  0
   10.4120    3.1312    0.0000 C   0  0  0  0  0  0  0  0  0  0  0  0
   15.7964   -0.8250    0.0000 O   0  0  0  0  0  0  0  0  0  0  0  0
   15.7964    0.0000    0.0000 S   0  0  0  0  0  0  0  0  0  0  0  0
   15.7964    0.8250    0.0000 O   0  0  0  0  0  0  0  0  0  0  0  0
   16.6214   -0.0000    0.0000 O   0  0  0  0  0  0  0  0  0  0  0  0
   14.9714    0.0000    0.0000 O   0  0  0  0  0  0  0  0  0  0  0  0
    0.0000   -7.7692    0.0000 O   0  0  0  0  0  0  0  0  0  0  0  0
    0.0000   -6.9442    0.0000 S   0  0  0  0  0  0  0  0  0  0  0  0
    0.0000   -6.1192    0.0000 O   0  0  0  0  0  0  0  0  0  0  0  0
    0.8250   -6.9442    0.0000 O   0  0  0  0  0  0  0  0  0  0  0  0
   -0.8250   -6.9442    0.0000 O   0  0  0  0  0  0  0  0  0  0  0  0
    3.5357   -7.7692    0.0000 O   0  0  0  0  0  0  0  0  0  0  0  0
    3.5357   -6.9442    0.0000 S   0  0  0  0  0  0  0  0  0  0  0  0
    3.5357   -6.1192    0.0000 O   0  0  0  0  0  0  0  0  0  0  0  0
    4.3607   -6.9442    0.0000 O   0  0  0  0  0  0  0  0  0  0  0  0
    2.7107   -6.9442    0.0000 O   0  0  0  0  0  0  0  0  0  0  0  0
    7.0714   -7.7692    0.0000 O   0  0  0  0  0  0  0  0  0  0  0  0
    7.0714   -6.9442    0.0000 S   0  0  0  0  0  0  0  0  0  0  0  0
    7.0714   -6.1192    0.0000 O   0  0  0  0  0  0  0  0  0  0  0  0
    7.8964   -6.9442    0.0000 O   0  0  0  0  0  0  0  0  0  0  0  0
    6.2464   -6.9442    0.0000 O   0  0  0  0  0  0  0  0  0  0  0  0
    0.0000  -11.0692    0.0000 O   0  0  0  0  0  0  0  0  0  0  0  0
    0.0000  -10.2442    0.0000 S   0  0  0  0  0  0  0  0  0  0  0  0
    0.0000   -9.4192    0.0000 O   0  0  0  0  0  0  0  0  0  0  0  0
    0.8250  -10.2442    0.0000 O   0  0  0  0  0  0  0  0  0  0  0  0
   -0.8250  -10.2442    0.0000 O   0  0  0  0  0  0  0  0  0  0  0  0
  2  1  1  1  0  0  0
  2  3  1  0  0  0  0
  3  4  1  6  0  0  0
  3  5  1  0  0  0  0
  5  6  1  1  0  0  0
  7  6  1  1  0  0  0
  7  8  1  0  0  0  0
  8  9  1  0  0  0  0
  9 10  2  0  0  0  0
 10 11  1  0  0  0  0
 11 12  1  0  0  0  0
  7 12  1  0  0  0  0
 12 13  1  1  0  0  0
  9 14  1  0  0  0  0
 14 15  1  0  0  0  0
  5 16  1  0  0  0  0
 16 17  1  6  0  0  0
 16 18  1  0  0  0  0
 18 19  1  0  0  0  0
  2 19  1  0  0  0  0
 19 20  1  6  0  0  0
 20 21  1  0  0  0  0
 21 22  1  0  0  0  0
 23  1  1  1  0  0  0
 23 24  1  0  0  0  0
 24 25  1  0  0  0  0
 25 26  1  0  0  0  0
 26 27  1  6  0  0  0
 26 28  1  0  0  0  0
 28 29  1  6  0  0  0
 29 30  1  0  0  0  0
 28 31  1  0  0  0  0
 23 31  1  0  0  0  0
 31 32  1  1  0  0  0
 26 33  1  1  0  0  0
 34 35  1  0  0  0  0
 35 36  1  1  0  0  0
 37 36  1  1  0  0  0
 37 38  1  0  0  0  0
 38 39  1  6  0  0  0
 38 40  1  0  0  0  0
 40 41  1  1  0  0  0
 42 41  1  1  0  0  0
 42 43  1  0  0  0  0
 43 44  1  0  0  0  0
 44 45  2  0  0  0  0
 45 46  1  0  0  0  0
 46 47  1  0  0  0  0
 42 47  1  0  0  0  0
 47 48  1  1  0  0  0
 44 49  1  0  0  0  0
 49 50  1  0  0  0  0
 40 51  1  0  0  0  0
 51 52  1  6  0  0  0
 51 53  1  0  0  0  0
 53 54  1  0  0  0  0
 37 54  1  0  0  0  0
 54 55  1  6  0  0  0
 55 56  1  0  0  0  0
 56 57  1  0  0  0  0
 35 58  1  0  0  0  0
 58 59  1  1  0  0  0
 58 60  1  0  0  0  0
 60 61  1  6  0  0  0
 61 62  1  0  0  0  0
 60 63  1  0  0  0  0
 63 64  1  6  0  0  0
 63 65  1  0  0  0  0
 34 65  1  0  0  0  0
 63 66  1  1  0  0  0
 67 68  2  0  0  0  0
 68 69  2  0  0  0  0
 68 70  1  0  0  0  0
 68 71  1  0  0  0  0
 72 73  2  0  0  0  0
 73 74  2  0  0  0  0
 73 75  1  0  0  0  0
 73 76  1  0  0  0  0
 77 78  2  0  0  0  0
 78 79  2  0  0  0  0
 78 80  1  0  0  0  0
 78 81  1  0  0  0  0
 82 83  2  0  0  0  0
 83 84  2  0  0  0  0
 83 85  1  0  0  0  0
 83 86  1  0  0  0  0
 87 88  2  0  0  0  0
 88 89  2  0  0  0  0
 88 90  1  0  0  0  0
 88 91  1  0  0  0  0
M  END
>  <Name>
Netilmicin sulfate

>  <CAS>
56391-57-2

>  <Formula>
C21H41N5O7.2.5H2SO4

>  <MolWt>
720.78 

>  <Bioactivity>
Netilmicin Sulfate is a member of the aminoglycoside family of antibiotics.

>  <Pathways>
Microbiology & Virology

>  <Target>
Antibiotic

>  <Receptor>
Others

>  <Reference>
1. Chaudry IA, et al. Am J Hosp Pharm. 1981 Nov;38(11):1737-42.

$$$$
T0090
  Mrv1561503291623562D          

 13 12  0  0  0  0            999 V2000
    0.0000    0.0000    0.0000 Cl  0  0  0  0  0  0  0  0  0  0  0  0
    3.0716   -0.8594    0.0000 C   0  0  0  0  0  0  0  0  0  0  0  0
    3.7861   -0.4469    0.0000 N   0  0  0  0  0  0  0  0  0  0  0  0
    4.5006   -0.8594    0.0000 C   0  0  0  0  0  0  0  0  0  0  0  0
    4.5006   -1.6844    0.0000 C   0  0  0  0  0  0  0  0  0  0  0  0
    3.7861   -2.0969    0.0000 O   0  0  0  0  0  0  0  0  0  0  0  0
    3.0716   -1.6844    0.0000 C   0  0  0  0  0  0  0  0  0  0  0  0
    3.7861    0.3781    0.0000 C   0  0  0  0  0  0  0  0  0  0  0  0
    4.5006    0.7906    0.0000 N   0  0  0  0  0  0  0  0  0  0  0  0
    3.0716    0.7906    0.0000 N   0  0  0  0  0  0  0  0  0  0  0  0
    3.0716    1.6156    0.0000 C   0  0  0  0  0  0  0  0  0  0  0  0
    2.3571    2.0281    0.0000 N   0  0  0  0  0  0  0  0  0  0  0  0
    3.7861    2.0281    0.0000 N   0  0  0  0  0  0  0  0  0  0  0  0
  2  3  1  0  0  0  0
  3  4  1  0  0  0  0
  4  5  1  0  0  0  0
  5  6  1  0  0  0  0
  6  7  1  0  0  0  0
  2  7  1  0  0  0  0
  3  8  1  0  0  0  0
  8  9  2  0  0  0  0
  8 10  1  0  0  0  0
 10 11  2  0  0  0  0
 11 12  1  0  0  0  0
 11 13  1  0  0  0  0
M  RAD  1   1   2
M  END
>  <Name>
Moroxydine HCl

>  <CAS>
3160-91-6

>  <Formula>
C6H13N5O.HCl

>  <MolWt>
207.66 

>  <Bioactivity>
Moroxydine HCl is a synthetic antiviral drug chemically belonging to the series of the heterocyclic biguanidines. Structurally moroxydine is a heterocyclic biguanidine. It possesses antiviral activity and is of value in the prevention and treatment of influenza. Although its mechanism of action is not fully known the effects seem to be due to an influence on the virus host-cell system.

>  <Pathways>
DNA Damage/DNA Repair;Microbiology & Virology

>  <Target>
Antiviral; DNA/RNA Synthesis inhibitor

>  <Receptor>
RNA and DNA viruses

>  <Reference>
1. Sheppard S. Acta Derm Venereol Suppl (Stockh). 1994;183:1-9.

$$$$
14919-77-8
  Mrv1561503291623562D          

 20 18  0  0  0  0            999 V2000
    0.4125    0.0000    0.0000 H   0  3  0  0  0  0  0  0  0  0  0  0
    3.7272   -0.6875    0.0000 C   0  0  0  0  0  0  0  0  0  0  0  0
    3.0127   -0.2750    0.0000 C   0  0  0  0  0  0  0  0  0  0  0  0
    3.0127    0.5500    0.0000 C   0  0  0  0  0  0  0  0  0  0  0  0
    3.7272    0.9625    0.0000 C   0  0  0  0  0  0  0  0  0  0  0  0
    3.7272    1.7875    0.0000 O   0  0  0  0  0  0  0  0  0  0  0  0
    4.4416    0.5500    0.0000 C   0  0  0  0  0  0  0  0  0  0  0  0
    4.4416   -0.2750    0.0000 C   0  0  0  0  0  0  0  0  0  0  0  0
    5.1561   -0.6875    0.0000 C   0  0  0  0  0  0  0  0  0  0  0  0
    5.8706   -0.2750    0.0000 N   0  0  0  0  0  0  0  0  0  0  0  0
    6.5850   -0.6875    0.0000 N   0  0  0  0  0  0  0  0  0  0  0  0
    7.2995   -0.2750    0.0000 C   0  0  0  0  0  0  0  0  0  0  0  0
    7.2995    0.5500    0.0000 O   0  0  0  0  0  0  0  0  0  0  0  0
    8.0140   -0.6875    0.0000 C   0  0  0  0  0  0  0  0  0  0  0  0
    8.0140   -1.5125    0.0000 N   0  0  0  0  0  0  0  0  0  0  0  0
    8.7285   -0.2750    0.0000 C   0  0  0  0  0  0  0  0  0  0  0  0
    9.4429   -0.6875    0.0000 O   0  0  0  0  0  0  0  0  0  0  0  0
    5.1561    0.9625    0.0000 O   0  0  0  0  0  0  0  0  0  0  0  0
    2.2982    0.9625    0.0000 O   0  0  0  0  0  0  0  0  0  0  0  0
   -0.4125    0.0000    0.0000 Cl  0  5  0  0  0  0  0  0  0  0  0  0
  2  3  2  0  0  0  0
  3  4  1  0  0  0  0
  4  5  2  0  0  0  0
  5  6  1  0  0  0  0
  5  7  1  0  0  0  0
  7  8  2  0  0  0  0
  2  8  1  0  0  0  0
  8  9  1  0  0  0  0
  9 10  1  0  0  0  0
 10 11  1  0  0  0  0
 11 12  1  0  0  0  0
 12 13  2  0  0  0  0
 12 14  1  0  0  0  0
 14 15  1  0  0  0  0
 14 16  1  0  0  0  0
 16 17  1  0  0  0  0
  7 18  1  0  0  0  0
  4 19  1  0  0  0  0
M  CHG  2   1   1  20  -1
M  END
>  <Name>
Benserazide HCl

>  <CAS>
14919-77-8

>  <Formula>
C10H15N3O5.HCl

>  <MolWt>
293.70 

>  <Bioactivity>
An inhibitor of DOPA DECARBOXYLASE that does not enter the central nervous system. It is often given with LEVODOPA in the treatment of parkinsonism to prevent the conversion of levodopa to dopamine in the periphery, thereby increasing the amount that reaches the central nervous system and reducing the required dose. It has no antiparkinson actions when given alone. 

>  <Pathways>
Neuroscience

>  <Target>
Dopa decarboxylase inhibitor;Dopamine Receptor antagonist

>  <Receptor>
Dopa decarboxylase;Dopamine receptor

>  <Reference>
1. Tashkhourian J, et al. Spectrochim Acta A Mol Biomol Spectrosc. 2011 Nov;82(1):25-30. 

$$$$
T1284
  Mrv1561503291623562D          

 28 31  0  0  1  0            999 V2000
    4.7875    0.9666    0.0000 C   0  0  1  0  0  0  0  0  0  0  0  0
    3.9629    0.9934    0.0000 C   0  0  2  0  0  0  0  0  0  0  0  0
    3.6826    0.2174    0.0000 C   0  0  2  0  0  0  0  0  0  0  0  0
    2.8705    0.0722    0.0000 C   0  0  1  0  0  0  0  0  0  0  0  0
    2.3387    0.7029    0.0000 C   0  0  1  0  0  0  0  0  0  0  0  0
    1.5266    0.5577    0.0000 C   0  0  2  0  0  0  0  0  0  0  0  0
    1.2463   -0.2182    0.0000 C   0  0  0  0  0  0  0  0  0  0  0  0
    0.4342   -0.3634    0.0000 C   0  0  0  0  0  0  0  0  0  0  0  0
   -0.0976    0.2673    0.0000 C   0  0  0  0  0  0  0  0  0  0  0  0
   -0.9098    0.1221    0.0000 O   0  0  0  0  0  0  0  0  0  0  0  0
    0.1827    1.0432    0.0000 C   0  0  0  0  0  0  0  0  0  0  0  0
    0.9948    1.1884    0.0000 C   0  0  0  0  0  0  0  0  0  0  0  0
    1.7781   -0.8489    0.0000 C   0  0  0  0  0  0  0  0  0  0  0  0
    2.5902   -0.7037    0.0000 C   0  0  0  0  0  0  0  0  0  0  0  0
    1.4978   -1.6248    0.0000 C   0  0  0  0  0  0  0  0  0  0  0  0
    1.8069    1.3336    0.0000 C   0  0  0  0  0  0  0  0  0  0  0  0
    2.6190    1.4789    0.0000 C   0  0  0  0  0  0  0  0  0  0  0  0
    3.4311    1.6241    0.0000 C   0  0  0  0  0  0  0  0  0  0  0  0
    4.3340   -0.2889    0.0000 C   0  0  0  0  0  0  0  0  0  0  0  0
    5.0168    0.1741    0.0000 C   0  0  0  0  0  0  0  0  0  0  0  0
    4.3228    1.7357    0.0000 C   0  0  0  0  0  0  0  0  0  0  0  0
    5.5484    1.2854    0.0000 O   0  0  0  0  0  0  0  0  0  0  0  0
    6.2050    0.7859    0.0000 C   0  0  0  0  0  0  0  0  0  0  0  0
    6.9659    1.1048    0.0000 C   0  0  0  0  0  0  0  0  0  0  0  0
    6.1007   -0.0325    0.0000 O   0  0  0  0  0  0  0  0  0  0  0  0
    4.9089    1.7826    0.0000 C   0  0  0  0  0  0  0  0  0  0  0  0
    4.2629    2.2957    0.0000 C   0  0  0  0  0  0  0  0  0  0  0  0
    5.6763    2.0854    0.0000 O   0  0  0  0  0  0  0  0  0  0  0  0
  1  2  1  0  0  0  0
  2  3  1  0  0  0  0
  3  4  1  0  0  0  0
  4  5  1  0  0  0  0
  5  6  1  0  0  0  0
  6  7  1  0  0  0  0
  7  8  2  0  0  0  0
  8  9  1  0  0  0  0
  9 10  2  0  0  0  0
  9 11  1  0  0  0  0
 11 12  1  0  0  0  0
  6 12  1  0  0  0  0
  7 13  1  0  0  0  0
 13 14  2  0  0  0  0
  4 14  1  6  0  0  0
 13 15  1  0  0  0  0
  6 16  1  1  0  0  0
  5 17  1  1  0  0  0
 17 18  1  0  0  0  0
  2 18  1  0  0  0  0
  3 19  1  1  0  0  0
 19 20  1  0  0  0  0
  1 20  1  0  0  0  0
  2 21  1  1  0  0  0
  1 22  1  6  0  0  0
 22 23  1  0  0  0  0
 23 24  1  0  0  0  0
 23 25  2  0  0  0  0
  1 26  1  1  0  0  0
 26 27  1  0  0  0  0
 26 28  2  0  0  0  0
M  END
>  <Name>
Megestrol acetate

>  <CAS>
595-33-5

>  <Formula>
C24H32O4

>  <MolWt>
384.51 

>  <Bioactivity>
Megestrol acetate is a progestogen with actions and uses similar to those of the progestogens in general. It also has anti-androgenic properties. It is given by mouth in the palliative treatment or as an adjunct to other therapy in endometrial carcinoma and in breast cancer. Megestrol acetate has been approved to treat anorexia and cachexia. (From Reynolds JEF(Ed): Martindale: The Extra Pharmacopoeia (electronic version). Micromedex, Inc, Englewood, CO, 1995) 

>  <Pathways>
Endocrinology/ Hormones

>  <Target>
Glucocorticoid Receptor agonist; Estrogen/progestogen Receptor agonist

>  <Receptor>
Glucocorticoid receptor;Estrogen/progestogen Receptor

>  <Reference>
1. Vadivelu S, et al. J Neurosurg. 2010 May;112(5):920-4. 

$$$$
81098-60-4
  Mrv1561503291623562D          

 32 34  0  0  0  0            999 V2000
   -3.5724   -0.4125    0.0000 C   0  0  0  0  0  0  0  0  0  0  0  0
   -3.5724   -1.2375    0.0000 C   0  0  0  0  0  0  0  0  0  0  0  0
   -4.2868   -1.6500    0.0000 C   0  0  0  0  0  0  0  0  0  0  0  0
   -5.0013   -1.2375    0.0000 C   0  0  0  0  0  0  0  0  0  0  0  0
   -5.0013   -0.4125    0.0000 C   0  0  0  0  0  0  0  0  0  0  0  0
   -4.2868   -0.0000    0.0000 C   0  0  0  0  0  0  0  0  0  0  0  0
   -4.2868    0.8250    0.0000 Cl  0  0  0  0  0  0  0  0  0  0  0  0
   -5.7158   -0.0000    0.0000 N   0  0  0  0  0  0  0  0  0  0  0  0
   -4.2868   -2.4750    0.0000 O   0  0  0  0  0  0  0  0  0  0  0  0
   -5.0013   -2.8875    0.0000 C   0  0  0  0  0  0  0  0  0  0  0  0
   -2.8579   -1.6500    0.0000 C   0  0  0  0  0  0  0  0  0  0  0  0
   -2.1434   -1.2375    0.0000 N   0  0  0  0  0  0  0  0  0  0  0  0
   -1.4289   -1.6500    0.0000 C   0  0  0  0  0  0  0  0  0  0  0  0
   -0.7145   -1.2375    0.0000 C   0  0  0  0  0  0  0  0  0  0  0  0
   -0.0000   -1.6500    0.0000 C   0  0  0  0  0  0  0  0  0  0  0  0
   -0.0000   -2.4750    0.0000 N   0  0  0  0  0  0  0  0  0  0  0  0
    0.7145   -2.8875    0.0000 C   0  0  0  0  0  0  0  0  0  0  0  0
    1.4289   -2.4750    0.0000 C   0  0  0  0  0  0  0  0  0  0  0  0
    2.1434   -2.8875    0.0000 C   0  0  0  0  0  0  0  0  0  0  0  0
    2.8579   -2.4750    0.0000 O   0  0  0  0  0  0  0  0  0  0  0  0
    3.5724   -2.8875    0.0000 C   0  0  0  0  0  0  0  0  0  0  0  0
    4.2868   -2.4750    0.0000 C   0  0  0  0  0  0  0  0  0  0  0  0
    5.0013   -2.8875    0.0000 C   0  0  0  0  0  0  0  0  0  0  0  0
    5.0013   -3.7125    0.0000 C   0  0  0  0  0  0  0  0  0  0  0  0
    5.7158   -4.1250    0.0000 F   0  0  0  0  0  0  0  0  0  0  0  0
    4.2868   -4.1250    0.0000 C   0  0  0  0  0  0  0  0  0  0  0  0
    3.5724   -3.7125    0.0000 C   0  0  0  0  0  0  0  0  0  0  0  0
   -0.7145   -2.8875    0.0000 C   0  0  0  0  0  0  0  0  0  0  0  0
   -1.4289   -2.4750    0.0000 C   0  0  0  0  0  0  0  0  0  0  0  0
   -0.7145   -0.4125    0.0000 O   0  0  0  0  0  0  0  0  0  0  0  0
   -0.0000   -0.0000    0.0000 C   0  0  0  0  0  0  0  0  0  0  0  0
   -2.8579   -2.4750    0.0000 O   0  0  0  0  0  0  0  0  0  0  0  0
  1  2  2  0  0  0  0
  2  3  1  0  0  0  0
  3  4  2  0  0  0  0
  4  5  1  0  0  0  0
  5  6  2  0  0  0  0
  1  6  1  0  0  0  0
  6  7  1  0  0  0  0
  5  8  1  0  0  0  0
  3  9  1  0  0  0  0
  9 10  1  0  0  0  0
  2 11  1  0  0  0  0
 11 12  1  0  0  0  0
 12 13  1  0  0  0  0
 13 14  1  0  0  0  0
 14 15  1  0  0  0  0
 15 16  1  0  0  0  0
 16 17  1  0  0  0  0
 17 18  1  0  0  0  0
 18 19  1  0  0  0  0
 19 20  1  0  0  0  0
 20 21  1  0  0  0  0
 21 22  2  0  0  0  0
 22 23  1  0  0  0  0
 23 24  2  0  0  0  0
 24 25  1  0  0  0  0
 24 26  1  0  0  0  0
 26 27  2  0  0  0  0
 21 27  1  0  0  0  0
 16 28  1  0  0  0  0
 28 29  1  0  0  0  0
 13 29  1  0  0  0  0
 14 30  1  0  0  0  0
 30 31  1  0  0  0  0
 11 32  2  0  0  0  0
M  END
>  <Name>
Cisapride

>  <CAS>
81098-60-4

>  <Formula>
C23H29ClFN3O4.H2O

>  <MolWt>
483.97 

>  <Bioactivity>
Cisapride is a gastroprokinetic agent, a drug that increases motility in the upper gastrointestinal tract. It acts directly as a serotonin 5-HT4 receptor agonist and indirectly as a parasympathomimetic. Stimulation of the serotonin receptors increases acetylcholine release in the enteric nervous system. 

>  <Pathways>
Neuroscience

>  <Target>
5-HT receptor antagonist;Potassium Channel inhibitor

>  <Receptor>
5-HT receptor;Potassium Channel

>  <Reference>
1. Nagakura Y, et al. Pharmacol Res. 1999 May;39(5):375-82. 

$$$$
T1656
  Mrv1561503291623562D          

 30 33  0  0  0  0            999 V2000
    0.0000   -1.6500    0.0000 C   0  0  0  0  0  0  0  0  0  0  0  0
    0.7145   -1.2375    0.0000 C   0  0  0  0  0  0  0  0  0  0  0  0
    0.7145   -0.4125    0.0000 C   0  0  0  0  0  0  0  0  0  0  0  0
   -0.0000    0.0000    0.0000 C   0  0  0  0  0  0  0  0  0  0  0  0
   -0.7145   -0.4125    0.0000 C   0  0  0  0  0  0  0  0  0  0  0  0
   -0.7145   -1.2375    0.0000 C   0  0  0  0  0  0  0  0  0  0  0  0
   -1.4289   -1.6500    0.0000 O   0  0  0  0  0  0  0  0  0  0  0  0
   -1.4289   -2.4750    0.0000 C   0  0  0  0  0  0  0  0  0  0  0  0
   -1.4289   -0.0000    0.0000 O   0  0  0  0  0  0  0  0  0  0  0  0
   -2.1434   -0.4125    0.0000 C   0  0  0  0  0  0  0  0  0  0  0  0
   -2.8579   -0.0000    0.0000 C   0  0  0  0  0  0  0  0  0  0  0  0
   -3.5724   -0.4125    0.0000 C   0  0  0  0  0  0  0  0  0  0  0  0
   -4.2868   -0.0000    0.0000 C   0  0  0  0  0  0  0  0  0  0  0  0
   -4.2868    0.8250    0.0000 N   0  0  0  0  0  0  0  0  0  0  0  0
   -3.5724    1.2375    0.0000 C   0  0  0  0  0  0  0  0  0  0  0  0
   -2.8579    0.8250    0.0000 C   0  0  0  0  0  0  0  0  0  0  0  0
   -5.0013    1.2375    0.0000 C   0  0  0  0  0  0  0  0  0  0  0  0
    1.4289    0.0000    0.0000 N   0  0  0  0  0  0  0  0  0  0  0  0
    2.1434   -0.4125    0.0000 C   0  0  0  0  0  0  0  0  0  0  0  0
    2.1434   -1.2375    0.0000 N   0  0  0  0  0  0  0  0  0  0  0  0
    1.4289   -1.6500    0.0000 C   0  0  0  0  0  0  0  0  0  0  0  0
    1.4289   -2.4750    0.0000 N   0  0  0  0  0  0  0  0  0  0  0  0
    0.7145   -2.8875    0.0000 C   0  0  0  0  0  0  0  0  0  0  0  0
   -0.0000   -2.4750    0.0000 C   0  0  0  0  0  0  0  0  0  0  0  0
   -0.7145   -2.8875    0.0000 C   0  0  0  0  0  0  0  0  0  0  0  0
   -0.7145   -3.7125    0.0000 C   0  0  0  0  0  0  0  0  0  0  0  0
   -1.4289   -4.1250    0.0000 Br  0  0  0  0  0  0  0  0  0  0  0  0
   -0.0000   -4.1250    0.0000 C   0  0  0  0  0  0  0  0  0  0  0  0
    0.7145   -3.7125    0.0000 C   0  0  0  0  0  0  0  0  0  0  0  0
    1.4289   -4.1250    0.0000 F   0  0  0  0  0  0  0  0  0  0  0  0
  1  2  2  0  0  0  0
  2  3  1  0  0  0  0
  3  4  2  0  0  0  0
  4  5  1  0  0  0  0
  5  6  2  0  0  0  0
  1  6  1  0  0  0  0
  6  7  1  0  0  0  0
  7  8  1  0  0  0  0
  5  9  1  0  0  0  0
  9 10  1  0  0  0  0
 10 11  1  0  0  0  0
 11 12  1  0  0  0  0
 12 13  1  0  0  0  0
 13 14  1  0  0  0  0
 14 15  1  0  0  0  0
 15 16  1  0  0  0  0
 11 16  1  0  0  0  0
 14 17  1  0  0  0  0
  3 18  1  0  0  0  0
 18 19  2  0  0  0  0
 19 20  1  0  0  0  0
 20 21  2  0  0  0  0
  2 21  1  0  0  0  0
 21 22  1  0  0  0  0
 22 23  1  0  0  0  0
 23 24  2  0  0  0  0
 24 25  1  0  0  0  0
 25 26  2  0  0  0  0
 26 27  1  0  0  0  0
 26 28  1  0  0  0  0
 28 29  2  0  0  0  0
 23 29  1  0  0  0  0
 29 30  1  0  0  0  0
M  END
>  <Name>
Vandetanib (ZD6474)

>  <CAS>
443913-73-3

>  <Formula>
C22H24BrFN4O2

>  <MolWt>
475.31 

>  <Bioactivity>
Vandetanib is an orally bioavailable 4-anilinoquinazoline. Vandetanib selectively inhibits the tyrosine kinase activity of vascular endothelial growth factor receptor 2 (VEGFR2), thereby blocking VEGF-stimulated endothelial cell proliferation and migration and reducing tumor vessel permeability. This agent also blocks the tyrosine kinase activity of epidermal growth factor receptor (EGFR), a receptor tyrosine kinase that mediates tumor cell proliferation and migration and angiogenesis.


>  <Pathways>
Tyrosine Kinase/Adaptors

>  <Target>
VEGFR antagonist; EGFR inhibitor

>  <Receptor>
VEGFR2/EGFR

>  <Reference>
1. Wedge SR, et al. Cancer Res. 2002, 62(16), 4645-4655.

$$$$
T1511
  Mrv1561503291623562D          

 40 42  0  0  1  0            999 V2000
    0.9454   -0.1755    0.0000 C   0  0  0  0  0  0  0  0  0  0  0  0
    0.9454   -1.0005    0.0000 O   0  0  0  0  0  0  0  0  0  0  0  0
    1.6599   -1.4130    0.0000 C   0  0  0  0  0  0  0  0  0  0  0  0
    2.3744   -1.0005    0.0000 O   0  0  0  0  0  0  0  0  0  0  0  0
    3.0888   -1.4130    0.0000 C   0  0  0  0  0  0  0  0  0  0  0  0
    3.0888   -2.2380    0.0000 C   0  0  0  0  0  0  0  0  0  0  0  0
    3.8033   -2.6505    0.0000 O   0  0  0  0  0  0  0  0  0  0  0  0
    2.3744   -2.6505    0.0000 C   0  0  0  0  0  0  0  0  0  0  0  0
    2.3744   -3.4755    0.0000 N   0  0  0  0  0  0  0  0  0  0  0  0
    1.6599   -2.2380    0.0000 C   0  0  0  0  0  0  0  0  0  0  0  0
    3.8033   -1.0005    0.0000 C   0  0  0  0  0  0  0  0  0  0  0  0
    1.6599    0.2370    0.0000 C   0  0  0  0  0  0  0  0  0  0  0  0
    1.6599    1.0620    0.0000 C   0  0  0  0  0  0  0  0  0  0  0  0
    2.4724    0.9187    0.0000 O   0  0  0  0  0  0  0  0  0  0  0  0
    0.9454    1.4745    0.0000 C   0  0  0  0  0  0  0  0  0  0  0  0
    0.2309    1.0620    0.0000 C   0  0  0  0  0  0  0  0  0  0  0  0
    0.2309    0.2370    0.0000 C   0  0  0  0  0  0  0  0  0  0  0  0
   -0.4835   -0.1755    0.0000 C   0  0  0  0  0  0  0  0  0  0  0  0
   -1.1980    0.2370    0.0000 C   0  0  0  0  0  0  0  0  0  0  0  0
   -1.1980    1.0620    0.0000 C   0  0  0  0  0  0  0  0  0  0  0  0
   -0.4835    1.4745    0.0000 C   0  0  0  0  0  0  0  0  0  0  0  0
   -0.4835    2.2995    0.0000 O   0  0  0  0  0  0  0  0  0  0  0  0
   -1.9125    1.4745    0.0000 C   0  0  0  0  0  0  0  0  0  0  0  0
   -1.9125    2.2995    0.0000 O   0  0  0  0  0  0  0  0  0  0  0  0
   -2.6269    1.0620    0.0000 C   0  0  0  0  0  0  0  0  0  0  0  0
   -2.6269    0.2370    0.0000 C   0  0  0  0  0  0  0  0  0  0  0  0
   -1.9125   -0.1755    0.0000 C   0  0  0  0  0  0  0  0  0  0  0  0
   -1.9125   -1.0005    0.0000 O   0  0  0  0  0  0  0  0  0  0  0  0
   -3.3414   -0.1755    0.0000 C   0  0  0  0  0  0  0  0  0  0  0  0
   -4.0559    0.2370    0.0000 C   0  0  0  0  0  0  0  0  0  0  0  0
   -4.0559    1.0620    0.0000 C   0  0  0  0  0  0  0  0  0  0  0  0
   -3.3414    1.4745    0.0000 C   0  0  0  0  0  0  0  0  0  0  0  0
   -3.3414   -1.0005    0.0000 O   0  0  0  0  0  0  0  0  0  0  0  0
   -4.0559   -1.4130    0.0000 C   0  0  0  0  0  0  0  0  0  0  0  0
   -0.4835   -1.0005    0.0000 O   0  0  0  0  0  0  0  0  0  0  0  0
    1.9421    1.8372    0.0000 C   0  0  0  0  0  0  0  0  0  0  0  0
    1.4118    2.4692    0.0000 O   0  0  0  0  0  0  0  0  0  0  0  0
    2.7545    1.9805    0.0000 C   0  0  0  0  0  0  0  0  0  0  0  0
    6.9854    0.0000    0.0000 H   0  3  0  0  0  0  0  0  0  0  0  0
    6.1604    0.0000    0.0000 Cl  0  5  0  0  0  0  0  0  0  0  0  0
  1  2  1  0  0  0  0
  2  3  1  0  0  0  0
  3  4  1  0  0  0  0
  4  5  1  0  0  0  0
  5  6  1  0  0  0  0
  6  7  1  0  0  0  0
  6  8  1  0  0  0  0
  8  9  1  0  0  0  0
  8 10  1  0  0  0  0
  3 10  1  0  0  0  0
  5 11  1  0  0  0  0
  1 12  1  0  0  0  0
 12 13  1  0  0  0  0
 13 14  1  0  0  0  0
 13 15  1  0  0  0  0
 15 16  1  0  0  0  0
 16 17  2  0  0  0  0
  1 17  1  0  0  0  0
 17 18  1  0  0  0  0
 18 19  2  0  0  0  0
 19 20  1  0  0  0  0
 20 21  2  0  0  0  0
 16 21  1  0  0  0  0
 21 22  1  0  0  0  0
 20 23  1  0  0  0  0
 23 24  2  0  0  0  0
 23 25  1  0  0  0  0
 25 26  2  0  0  0  0
 26 27  1  0  0  0  0
 19 27  1  0  0  0  0
 27 28  2  0  0  0  0
 26 29  1  0  0  0  0
 29 30  2  0  0  0  0
 30 31  1  0  0  0  0
 31 32  2  0  0  0  0
 25 32  1  0  0  0  0
 29 33  1  0  0  0  0
 33 34  1  0  0  0  0
 18 35  1  0  0  0  0
 13 36  1  0  0  0  0
 36 37  2  0  0  0  0
 36 38  1  0  0  0  0
M  CHG  2  39   1  40  -1
M  END
>  <Name>
Daunorubicin HCl

>  <CAS>
23541-50-6

>  <Formula>
C27H29NO10.HCl

>  <MolWt>
563.99 

>  <Bioactivity>
Daunorubicin is an anthracycline antibiotic. It is also used as an effective chemotherapeutic agent against tumors especially acute myeloid leukaemia and acute lymphocytic leukaemia. Daunorubicin can affect the metabolism and synthesis of DNA and RNA. In the in vitro assay, daunorubicin inhibits the incorporation of thymidine and uridine into L1210 cells. It also inhibits the incorporation of labeled precursors into the isolated DNA and RNA from incubated cells. When treated with leukemic cells isolated from acute lymphocytic leukemia patients, daunorubicin significantly inhibits the biosynthesis of the DNA and RNA macromolecules

>  <Pathways>
DNA Damage/DNA Repair;Microbiology & Virology

>  <Target>
Topoisomerase inhibitor

>  <Receptor>
Topoisomerase II

>  <Reference>
1. Fu Y, et al. Thromb Haemost, 2010, 104(6), 1235-1241.

$$$$
T0087
  Mrv1561503291623562D          

 16 14  0  0  0  0            999 V2000
    0.8795    0.6030    0.0000 C   0  0  0  0  0  0  0  0  0  0  0  0
    0.1650    0.1905    0.0000 C   0  0  0  0  0  0  0  0  0  0  0  0
    0.1650   -0.6345    0.0000 S   0  0  0  0  0  0  0  0  0  0  0  0
    0.9900   -0.6345    0.0000 O   0  5  0  0  0  0  0  0  0  0  0  0
    0.1650   -1.4595    0.0000 O   0  0  0  0  0  0  0  0  0  0  0  0
   -0.6600   -0.6345    0.0000 N   0  0  0  0  0  0  0  0  0  0  0  0
   -1.0725   -1.3489    0.0000 C   0  0  0  0  0  0  0  0  0  0  0  0
   -1.8975   -1.3489    0.0000 O   0  0  0  0  0  0  0  0  0  0  0  0
   -0.6600   -2.0634    0.0000 C   0  0  0  0  0  0  0  0  0  0  0  0
   -0.5495    0.6030    0.0000 C   0  0  0  0  0  0  0  0  0  0  0  0
   -0.5495    1.4280    0.0000 C   0  0  0  0  0  0  0  0  0  0  0  0
    0.1650    1.8405    0.0000 C   0  0  0  0  0  0  0  0  0  0  0  0
    0.8795    1.4280    0.0000 C   0  0  0  0  0  0  0  0  0  0  0  0
    0.1650    2.6655    0.0000 N   0  0  0  0  0  0  0  0  0  0  0  0
    1.8150   -0.6345    0.0000 Na  0  3  0  0  0  0  0  0  0  0  0  0
    4.1721    0.0000    0.0000 O   0  0  0  0  0  0  0  0  0  0  0  0
  1  2  2  0  0  0  0
  2  3  1  0  0  0  0
  3  4  1  0  0  0  0
  3  5  2  0  0  0  0
  3  6  2  3  0  0  0
  6  7  1  0  0  0  0
  7  8  2  0  0  0  0
  7  9  1  0  0  0  0
  2 10  1  0  0  0  0
 10 11  2  0  0  0  0
 11 12  1  0  0  0  0
 12 13  2  0  0  0  0
  1 13  1  0  0  0  0
 12 14  1  0  0  0  0
M  CHG  2   4  -1  15   1
M  END
>  <Name>
Sulfacetamide sodium salt hydrate

>  <CAS>
6209-17-2

>  <Formula>
C8H9N2NaO3S.H2O

>  <MolWt>
254.20 

>  <Bioactivity>
An anti-infective agent that is used topically to treat skin infections and orally for urinary tract infections

>  <Pathways>
Metabolism

>  <Target>
DHPS inhibitor

>  <Receptor>
FOL1;DHPS

>  <Reference>
1. Hevener KE, et al. J Chem Inf Model. 2009 Jan 27.

$$$$
50-22-6
  Mrv1561503291623562D          

 25 28  0  0  1  0            999 V2000
    2.3387    0.7029    0.0000 C   0  0  2  0  0  0  0  0  0  0  0  0
    2.8705    0.0722    0.0000 C   0  0  2  0  0  0  0  0  0  0  0  0
    3.6826    0.2174    0.0000 C   0  0  1  0  0  0  0  0  0  0  0  0
    3.9629    0.9934    0.0000 C   0  0  2  0  0  0  0  0  0  0  0  0
    4.7875    0.9666    0.0000 C   0  0  1  0  0  0  0  0  0  0  0  0
    5.2939    1.6179    0.0000 C   0  0  0  0  0  0  0  0  0  0  0  0
    6.1111    1.5050    0.0000 C   0  0  0  0  0  0  0  0  0  0  0  0
    6.6175    2.1564    0.0000 O   0  0  0  0  0  0  0  0  0  0  0  0
    4.9830    2.3821    0.0000 O   0  0  0  0  0  0  0  0  0  0  0  0
    5.0168    0.1741    0.0000 C   0  0  0  0  0  0  0  0  0  0  0  0
    4.3340   -0.2889    0.0000 C   0  0  0  0  0  0  0  0  0  0  0  0
    4.3228    1.7357    0.0000 C   0  0  0  0  0  0  0  0  0  0  0  0
    3.4311    1.6241    0.0000 C   0  0  0  0  0  0  0  0  0  0  0  0
    2.6190    1.4789    0.0000 C   0  0  2  0  0  0  0  0  0  0  0  0
    2.0872    2.1096    0.0000 O   0  0  0  0  0  0  0  0  0  0  0  0
    2.5902   -0.7037    0.0000 C   0  0  0  0  0  0  0  0  0  0  0  0
    1.7781   -0.8489    0.0000 C   0  0  0  0  0  0  0  0  0  0  0  0
    1.2463   -0.2182    0.0000 C   0  0  0  0  0  0  0  0  0  0  0  0
    0.4342   -0.3634    0.0000 C   0  0  0  0  0  0  0  0  0  0  0  0
   -0.0976    0.2673    0.0000 C   0  0  0  0  0  0  0  0  0  0  0  0
   -0.9098    0.1221    0.0000 O   0  0  0  0  0  0  0  0  0  0  0  0
    0.1827    1.0432    0.0000 C   0  0  0  0  0  0  0  0  0  0  0  0
    0.9948    1.1884    0.0000 C   0  0  0  0  0  0  0  0  0  0  0  0
    1.5266    0.5577    0.0000 C   0  0  2  0  0  0  0  0  0  0  0  0
    1.8069    1.3336    0.0000 C   0  0  0  0  0  0  0  0  0  0  0  0
  1  2  1  0  0  0  0
  2  3  1  0  0  0  0
  3  4  1  0  0  0  0
  4  5  1  0  0  0  0
  5  6  1  1  0  0  0
  6  7  1  0  0  0  0
  7  8  1  0  0  0  0
  6  9  2  0  0  0  0
  5 10  1  0  0  0  0
 10 11  1  0  0  0  0
  3 11  1  1  0  0  0
  4 12  1  1  0  0  0
  4 13  1  0  0  0  0
 13 14  1  0  0  0  0
  1 14  1  0  0  0  0
 14 15  1  1  0  0  0
  2 16  1  6  0  0  0
 16 17  1  0  0  0  0
 17 18  1  0  0  0  0
 18 19  2  0  0  0  0
 19 20  1  0  0  0  0
 20 21  2  0  0  0  0
 20 22  1  0  0  0  0
 22 23  1  0  0  0  0
 23 24  1  0  0  0  0
  1 24  1  1  0  0  0
 18 24  1  0  0  0  0
 24 25  1  1  0  0  0
M  END
>  <Name>
Corticosterone

>  <CAS>
50-22-6

>  <Formula>
C21H30O4

>  <MolWt>
346.46 

>  <Bioactivity>
Corticosterone is a 21-carbon steroid hormone of the corticosteroid type produced in the cortex of the adrenal glands in rodents and other non-human animals.

>  <Pathways>
GPCR/G Protein

>  <Target>
Adrenergic Receptor antagonist

>  <Receptor>
Adrenergic Receptor

>  <Reference>
1. Shyti R, et al. Exp Neurol. 2015 Jan;263:214-20. 

$$$$
118288-08-7
  Mrv1561503291623562D          

 30 32  0  0  0  0            999 V2000
    2.1434   -2.0625    0.0000 C   0  0  0  0  0  0  0  0  0  0  0  0
    1.4289   -1.6500    0.0000 C   0  0  0  0  0  0  0  0  0  0  0  0
    1.4289   -0.8250    0.0000 N   0  0  0  0  0  0  0  0  0  0  0  0
    2.1434   -0.4125    0.0000 C   0  0  0  0  0  0  0  0  0  0  0  0
    2.8579   -0.8250    0.0000 C   0  0  0  0  0  0  0  0  0  0  0  0
    2.8579   -1.6500    0.0000 C   0  0  0  0  0  0  0  0  0  0  0  0
    3.5724   -2.0625    0.0000 C   0  0  0  0  0  0  0  0  0  0  0  0
    4.2868   -1.6500    0.0000 N   0  0  0  0  0  0  0  0  0  0  0  0
    4.2868   -0.8250    0.0000 C   0  0  0  0  0  0  0  0  0  0  0  0
    5.0013   -0.4125    0.0000 C   0  0  0  0  0  0  0  0  0  0  0  0
    5.7158   -0.8250    0.0000 C   0  0  0  0  0  0  0  0  0  0  0  0
    5.7158   -1.6500    0.0000 C   0  0  0  0  0  0  0  0  0  0  0  0
    5.0013   -2.0625    0.0000 C   0  0  0  0  0  0  0  0  0  0  0  0
    0.7145   -2.0625    0.0000 O   0  0  0  0  0  0  0  0  0  0  0  0
    0.7145   -2.8875    0.0000 C   0  0  0  0  0  0  0  0  0  0  0  0
   -0.0000   -3.3000    0.0000 C   0  0  0  0  0  0  0  0  0  0  0  0
   -0.0000   -4.1250    0.0000 C   0  0  0  0  0  0  0  0  0  0  0  0
    0.7145   -4.5375    0.0000 C   0  0  0  0  0  0  0  0  0  0  0  0
    1.4289   -4.1250    0.0000 N   0  0  0  0  0  0  0  0  0  0  0  0
    2.1434   -4.5375    0.0000 C   0  0  0  0  0  0  0  0  0  0  0  0
    2.8579   -4.1250    0.0000 C   0  0  0  0  0  0  0  0  0  0  0  0
    3.5724   -4.5375    0.0000 S   0  0  0  0  0  0  0  0  0  0  0  0
    4.2868   -4.1250    0.0000 C   0  0  0  0  0  0  0  0  0  0  0  0
    5.0013   -4.5375    0.0000 C   0  0  0  0  0  0  0  0  0  0  0  0
    5.7550   -4.2019    0.0000 C   0  0  0  0  0  0  0  0  0  0  0  0
    6.3070   -4.8150    0.0000 C   0  0  0  0  0  0  0  0  0  0  0  0
    5.8945   -5.5295    0.0000 C   0  0  0  0  0  0  0  0  0  0  0  0
    5.0875   -5.3580    0.0000 O   0  0  0  0  0  0  0  0  0  0  0  0
    3.5724   -5.3625    0.0000 O   0  0  0  0  0  0  0  0  0  0  0  0
    2.1434   -5.3625    0.0000 O   0  0  0  0  0  0  0  0  0  0  0  0
  1  2  2  0  0  0  0
  2  3  1  0  0  0  0
  3  4  2  0  0  0  0
  4  5  1  0  0  0  0
  5  6  2  0  0  0  0
  1  6  1  0  0  0  0
  6  7  1  0  0  0  0
  7  8  1  0  0  0  0
  8  9  1  0  0  0  0
  9 10  1  0  0  0  0
 10 11  1  0  0  0  0
 11 12  1  0  0  0  0
 12 13  1  0  0  0  0
  8 13  1  0  0  0  0
  2 14  1  0  0  0  0
 14 15  1  0  0  0  0
 15 16  1  0  0  0  0
 16 17  2  0  0  0  0
 17 18  1  0  0  0  0
 18 19  1  0  0  0  0
 19 20  1  0  0  0  0
 20 21  1  0  0  0  0
 21 22  1  0  0  0  0
 22 23  1  0  0  0  0
 23 24  1  0  0  0  0
 24 25  2  0  0  0  0
 25 26  1  0  0  0  0
 26 27  2  0  0  0  0
 27 28  1  0  0  0  0
 24 28  1  0  0  0  0
 22 29  2  0  0  0  0
 20 30  2  0  0  0  0
M  END
>  <Name>
Lafutidine

>  <CAS>
118288-08-7

>  <Formula>
C22H29N3O4S

>  <MolWt>
431.55 

>  <Bioactivity>
Lafutidine, a newly developed histamine H(2)-receptor antagonist, inhibits gastric acid secretion.

>  <Pathways>
Neuroscience

>  <Target>
Histamine Receptor

>  <Receptor>
Histamine receptor

>  <Reference>
1. Kim EH, et al. Dig Dis Sci. 2014 Dec 23. 

$$$$
T1023
  Mrv1561503291623562D          

 29 30  0  0  1  0            999 V2000
   -0.2615   -0.9760    0.0000 C   0  0  0  0  0  0  0  0  0  0  0  0
    0.5635   -0.9760    0.0000 C   0  0  0  0  0  0  0  0  0  0  0  0
    0.5635   -0.1510    0.0000 N   0  0  0  0  0  0  0  0  0  0  0  0
    1.2780    0.2615    0.0000 C   0  0  0  0  0  0  0  0  0  0  0  0
    1.9924   -0.1510    0.0000 C   0  0  0  0  0  0  0  0  0  0  0  0
    2.7069    0.2615    0.0000 C   0  0  0  0  0  0  0  0  0  0  0  0
    3.4214   -0.1510    0.0000 O   0  0  0  0  0  0  0  0  0  0  0  0
    4.1358    0.2615    0.0000 C   0  0  0  0  0  0  0  0  0  0  0  0
    4.8503   -0.1510    0.0000 N   0  0  0  0  0  0  0  0  0  0  0  0
    4.1358    1.0865    0.0000 O   0  0  0  0  0  0  0  0  0  0  0  0
    1.9924   -0.9760    0.0000 C   0  0  0  0  0  0  0  0  0  0  0  0
    1.2780   -1.3885    0.0000 S   0  0  0  0  0  0  0  0  0  0  0  0
    1.2780    1.0865    0.0000 C   0  0  0  0  0  0  0  0  0  0  0  0
    0.5635    1.4990    0.0000 O   0  0  0  0  0  0  0  0  0  0  0  0
    1.9924    1.4990    0.0000 O   0  5  0  0  0  0  0  0  0  0  0  0
   -0.2615   -0.1510    0.0000 C   0  0  0  0  0  0  0  0  0  0  0  0
   -0.8449    0.4324    0.0000 O   0  0  0  0  0  0  0  0  0  0  0  0
   -0.4541   -1.7782    0.0000 N   0  0  0  0  0  0  0  0  0  0  0  0
   -1.2451   -2.0125    0.0000 C   0  0  0  0  0  0  0  0  0  0  0  0
   -1.4377   -2.8147    0.0000 C   0  0  0  0  0  0  0  0  0  0  0  0
   -2.2288   -3.0490    0.0000 C   0  0  0  0  0  0  0  0  0  0  0  0
   -2.5041   -3.8267    0.0000 C   0  0  0  0  0  0  0  0  0  0  0  0
   -3.3289   -3.8051    0.0000 C   0  0  0  0  0  0  0  0  0  0  0  0
   -3.5632   -3.0141    0.0000 C   0  0  0  0  0  0  0  0  0  0  0  0
   -2.8833   -2.5468    0.0000 S   0  0  0  0  0  0  0  0  0  0  0  0
   -1.8436   -1.4446    0.0000 O   0  0  0  0  0  0  0  0  0  0  0  0
   -1.0637   -1.1686    0.0000 O   0  0  0  0  0  0  0  0  0  0  0  0
   -1.6316   -0.5701    0.0000 C   0  0  0  0  0  0  0  0  0  0  0  0
    2.7069    1.9115    0.0000 Na  0  3  0  0  0  0  0  0  0  0  0  0
  1  2  1  0  0  0  0
  2  3  1  0  0  0  0
  3  4  1  0  0  0  0
  4  5  2  0  0  0  0
  5  6  1  0  0  0  0
  6  7  1  0  0  0  0
  7  8  1  0  0  0  0
  8  9  1  0  0  0  0
  8 10  2  0  0  0  0
  5 11  1  0  0  0  0
 11 12  1  0  0  0  0
  2 12  1  0  0  0  0
  4 13  1  0  0  0  0
 13 14  2  0  0  0  0
 13 15  1  0  0  0  0
  3 16  1  0  0  0  0
  1 16  1  0  0  0  0
 16 17  2  0  0  0  0
  1 18  1  0  0  0  0
 18 19  1  0  0  0  0
 19 20  1  0  0  0  0
 20 21  1  0  0  0  0
 21 22  2  0  0  0  0
 22 23  1  0  0  0  0
 23 24  2  0  0  0  0
 24 25  1  0  0  0  0
 21 25  1  0  0  0  0
 19 26  2  0  0  0  0
  1 27  1  0  0  0  0
 27 28  1  0  0  0  0
M  CHG  2  15  -1  29   1
M  END
>  <Name>
Cefoxitin sodium

>  <CAS>
33564-30-6

>  <Formula>
C16H16N3NaO7S2

>  <MolWt>
449.43 

>  <Bioactivity>
A semisynthetic cephamycin antibiotic resistant to beta-lactamase.

>  <Pathways>
Microbiology & Virology

>  <Target>
Antibiotic

>  <Receptor>
Others

>  <Reference>
1. Salgado HR, Tozo GC. J AOAC Int. 2007 Mar-Apr;90(2):452-5.

$$$$
177036-94-1
  Mrv1561503291623562D          

 28 30  0  0  0  0            999 V2000
   -0.0824   -1.1093    0.0000 C   0  0  0  0  0  0  0  0  0  0  0  0
   -0.6658   -0.5259    0.0000 C   0  0  0  0  0  0  0  0  0  0  0  0
   -0.4523    0.2710    0.0000 C   0  0  0  0  0  0  0  0  0  0  0  0
    0.3446    0.4845    0.0000 C   0  0  0  0  0  0  0  0  0  0  0  0
    0.9280   -0.0989    0.0000 C   0  0  0  0  0  0  0  0  0  0  0  0
    0.7145   -0.8958    0.0000 C   0  0  0  0  0  0  0  0  0  0  0  0
    1.2978   -1.4791    0.0000 C   0  0  0  0  0  0  0  0  0  0  0  0
    0.7145   -2.0625    0.0000 C   0  0  0  0  0  0  0  0  0  0  0  0
   -0.0824   -1.8490    0.0000 C   0  0  0  0  0  0  0  0  0  0  0  0
   -0.6658   -2.4323    0.0000 O   0  0  0  0  0  0  0  0  0  0  0  0
   -0.5317   -1.1571    0.0000 O   0  0  0  0  0  0  0  0  0  0  0  0
    0.9280   -2.8594    0.0000 O   0  0  0  0  0  0  0  0  0  0  0  0
    0.3446   -3.4428    0.0000 C   0  0  0  0  0  0  0  0  0  0  0  0
    0.5582   -4.2396    0.0000 N   0  0  0  0  0  0  0  0  0  0  0  0
   -0.0252   -4.8230    0.0000 C   0  0  0  0  0  0  0  0  0  0  0  0
   -0.8221   -4.6095    0.0000 C   0  0  0  0  0  0  0  0  0  0  0  0
   -1.0356   -3.8126    0.0000 C   0  0  0  0  0  0  0  0  0  0  0  0
   -0.4523   -3.2292    0.0000 N   0  0  0  0  0  0  0  0  0  0  0  0
   -1.8325   -3.5991    0.0000 C   0  0  0  0  0  0  0  0  0  0  0  0
    0.1883   -5.6199    0.0000 C   0  0  0  0  0  0  0  0  0  0  0  0
    1.8812   -0.8958    0.0000 C   0  0  0  0  0  0  0  0  0  0  0  0
    1.6677   -0.0989    0.0000 C   0  0  0  0  0  0  0  0  0  0  0  0
    2.2510    0.4845    0.0000 C   0  0  0  0  0  0  0  0  0  0  0  0
    3.0479    0.2710    0.0000 C   0  0  0  0  0  0  0  0  0  0  0  0
    3.2614   -0.5259    0.0000 C   0  0  0  0  0  0  0  0  0  0  0  0
    2.6781   -1.1093    0.0000 C   0  0  0  0  0  0  0  0  0  0  0  0
    1.8812   -2.0625    0.0000 O   0  0  0  0  0  0  0  0  0  0  0  0
    1.6677   -2.8594    0.0000 C   0  0  0  0  0  0  0  0  0  0  0  0
  1  2  2  0  0  0  0
  2  3  1  0  0  0  0
  3  4  2  0  0  0  0
  4  5  1  0  0  0  0
  5  6  2  0  0  0  0
  1  6  1  0  0  0  0
  6  7  1  0  0  0  0
  7  8  1  0  0  0  0
  8  9  1  0  0  0  0
  9 10  2  0  0  0  0
  9 11  1  0  0  0  0
  8 12  1  0  0  0  0
 12 13  1  0  0  0  0
 13 14  2  0  0  0  0
 14 15  1  0  0  0  0
 15 16  2  0  0  0  0
 16 17  1  0  0  0  0
 17 18  2  0  0  0  0
 13 18  1  0  0  0  0
 17 19  1  0  0  0  0
 15 20  1  0  0  0  0
  7 21  1  0  0  0  0
 21 22  2  0  0  0  0
 22 23  1  0  0  0  0
 23 24  2  0  0  0  0
 24 25  1  0  0  0  0
 25 26  2  0  0  0  0
 21 26  1  0  0  0  0
  7 27  1  0  0  0  0
 27 28  1  0  0  0  0
M  END
>  <Name>
Ambrisentan

>  <CAS>
177036-94-1

>  <Formula>
C22H22N2O4

>  <MolWt>
378.42 

>  <Bioactivity>
Ambrisentan is an Endothelin Receptor Antagonist. The mechanism of action of ambrisentan is as an Endothelin Receptor Antagonist.


>  <Pathways>
GPCR/G Protein

>  <Target>
Endothelin Receptor antagonist

>  <Receptor>
Endothelin Receptor

>  <Reference>
1. Vatter H, Seifert V. Cardiovasc Drug Rev. 2006 Spring;24(1):63-76.

$$$$
108605-62-5
  Mrv1561503291623562D          

 19 19  0  0  0  0            999 V2000
   -0.7145    4.5375    0.0000 C   0  0  0  0  0  0  0  0  0  0  0  0
   -0.7145    3.7125    0.0000 C   0  0  0  0  0  0  0  0  0  0  0  0
   -1.4289    3.3000    0.0000 O   0  0  0  0  0  0  0  0  0  0  0  0
   -0.0000    3.3000    0.0000 C   0  0  0  0  0  0  0  0  0  0  0  0
    0.7145    3.7125    0.0000 C   0  0  0  0  0  0  0  0  0  0  0  0
    1.4289    4.1250    0.0000 N   0  0  0  0  0  0  0  0  0  0  0  0
   -0.0000    2.4750    0.0000 C   0  0  0  0  0  0  0  0  0  0  0  0
   -0.7145    2.0625    0.0000 O   0  0  0  0  0  0  0  0  0  0  0  0
    0.7145    2.0625    0.0000 N   0  0  0  0  0  0  0  0  0  0  0  0
    0.7145    1.2375    0.0000 C   0  0  0  0  0  0  0  0  0  0  0  0
    1.4289    0.8250    0.0000 C   0  0  0  0  0  0  0  0  0  0  0  0
    1.4289    0.0000    0.0000 C   0  0  0  0  0  0  0  0  0  0  0  0
    0.7145   -0.4125    0.0000 C   0  0  0  0  0  0  0  0  0  0  0  0
    0.0000   -0.0000    0.0000 C   0  0  0  0  0  0  0  0  0  0  0  0
    0.0000    0.8250    0.0000 C   0  0  0  0  0  0  0  0  0  0  0  0
    0.7145   -1.2375    0.0000 C   0  0  0  0  0  0  0  0  0  0  0  0
    0.7145   -2.0625    0.0000 F   0  0  0  0  0  0  0  0  0  0  0  0
   -0.1105   -1.2375    0.0000 F   0  0  0  0  0  0  0  0  0  0  0  0
    1.5395   -1.2375    0.0000 F   0  0  0  0  0  0  0  0  0  0  0  0
  1  2  1  0  0  0  0
  2  3  2  0  0  0  0
  2  4  1  0  0  0  0
  4  5  1  0  0  0  0
  5  6  3  0  0  0  0
  4  7  2  0  0  0  0
  7  8  1  0  0  0  0
  7  9  1  0  0  0  0
  9 10  1  0  0  0  0
 10 11  4  0  0  0  0
 11 12  4  0  0  0  0
 12 13  4  0  0  0  0
 13 14  4  0  0  0  0
 14 15  4  0  0  0  0
 10 15  4  0  0  0  0
 13 16  1  0  0  0  0
 16 17  1  0  0  0  0
 16 18  1  0  0  0  0
 16 19  1  0  0  0  0
M  END
>  <Name>
Teriflunomide

>  <CAS>
108605-62-5

>  <Formula>
C12H9F3N2O2

>  <MolWt>
270.21 

>  <Bioactivity>
Teriflunomide is the active metabolite of leflunomide, and it acts as an immunomodulatory agent by inhibiting pyrimidine synthesis. It is marketed under the name Aubagio® and is indicated for the treatment of multiple sclerosis, specifically relapsing forms. 

>  <Pathways>
Metabolism

>  <Target>
Dehydrogenase inhibitor

>  <Receptor>
Dihydroorotate Dehydrogenase

>  <Reference>
1. Palmer AM. Curr Opin Investig Drugs. 2010 Nov;11(11):1313-23.

$$$$
3564-73-6
  Mrv1561503291623562D          

 18 20  0  0  0  0            999 V2000
    1.3897   -0.3148    0.0000 C   0  0  0  0  0  0  0  0  0  0  0  0
    1.9945   -0.8760    0.0000 C   0  0  0  0  0  0  0  0  0  0  0  0
    2.7378   -0.5180    0.0000 N   0  0  0  0  0  0  0  0  0  0  0  0
    3.4811   -0.8760    0.0000 C   0  0  0  0  0  0  0  0  0  0  0  0
    3.6647   -1.6803    0.0000 C   0  0  0  0  0  0  0  0  0  0  0  0
    4.4530   -1.9235    0.0000 C   0  0  0  0  0  0  0  0  0  0  0  0
    5.0578   -1.3623    0.0000 C   0  0  0  0  0  0  0  0  0  0  0  0
    4.8742   -0.5580    0.0000 C   0  0  0  0  0  0  0  0  0  0  0  0
    4.0859   -0.3148    0.0000 C   0  0  0  0  0  0  0  0  0  0  0  0
    3.1503   -2.3253    0.0000 C   0  0  0  0  0  0  0  0  0  0  0  0
    2.3253   -2.3253    0.0000 C   0  0  0  0  0  0  0  0  0  0  0  0
    1.8109   -1.6803    0.0000 C   0  0  0  0  0  0  0  0  0  0  0  0
    1.0226   -1.9235    0.0000 C   0  0  0  0  0  0  0  0  0  0  0  0
    0.4178   -1.3623    0.0000 C   0  0  0  0  0  0  0  0  0  0  0  0
    0.6014   -0.5580    0.0000 C   0  0  0  0  0  0  0  0  0  0  0  0
    2.7378    0.3070    0.0000 C   0  0  0  0  0  0  0  0  0  0  0  0
    3.4523    0.7195    0.0000 N   0  0  0  0  0  0  0  0  0  0  0  0
    2.0233    0.7195    0.0000 O   0  0  0  0  0  0  0  0  0  0  0  0
  1  2  2  0  0  0  0
  2  3  1  0  0  0  0
  3  4  1  0  0  0  0
  4  5  2  0  0  0  0
  5  6  1  0  0  0  0
  6  7  2  0  0  0  0
  7  8  1  0  0  0  0
  8  9  2  0  0  0  0
  4  9  1  0  0  0  0
  5 10  1  0  0  0  0
 10 11  1  0  0  0  0
 11 12  1  0  0  0  0
  2 12  1  0  0  0  0
 12 13  2  0  0  0  0
 13 14  1  0  0  0  0
 14 15  2  0  0  0  0
  1 15  1  0  0  0  0
  3 16  1  0  0  0  0
 16 17  1  0  0  0  0
 16 18  2  0  0  0  0
M  END
>  <Name>
10,11-Dihydrocarbamazepine

>  <CAS>
3564-73-6

>  <Formula>
C15H14N2O

>  <MolWt>
238.29 

>  <Bioactivity>
Used as pharmaceutical intermediates

>  <Pathways>
Others

>  <Target>
Intermediates

>  <Receptor>
Others

>  <Reference>
1. Eberlin AR, et al. Acta Crystallogr C. 2013 Nov;69(Pt 11):1260-6. 

$$$$
T1001
  Mrv1561503291623562D          

 32 33  0  0  1  0            999 V2000
    1.5699    0.2416    0.0000 C   0  0  0  0  0  0  0  0  0  0  0  0
    2.3546    0.4965    0.0000 S   0  0  0  0  0  0  0  0  0  0  0  0
    2.8395   -0.1709    0.0000 C   0  0  0  0  0  0  0  0  0  0  0  0
    2.3546   -0.8384    0.0000 C   0  0  0  0  0  0  0  0  0  0  0  0
    1.5699   -0.5834    0.0000 N   0  0  0  0  0  0  0  0  0  0  0  0
    0.7449   -0.5834    0.0000 C   0  0  0  0  0  0  0  0  0  0  0  0
    0.1616   -1.1668    0.0000 O   0  0  0  0  0  0  0  0  0  0  0  0
    0.7449    0.2416    0.0000 C   0  0  0  0  0  0  0  0  0  0  0  0
    0.1616    0.8249    0.0000 N   0  0  0  0  0  0  0  0  0  0  0  0
   -0.6353    0.6114    0.0000 C   0  0  0  0  0  0  0  0  0  0  0  0
   -0.8488   -0.1855    0.0000 O   0  0  0  0  0  0  0  0  0  0  0  0
   -1.2187    1.1948    0.0000 C   0  0  0  0  0  0  0  0  0  0  0  0
   -1.0896    2.0096    0.0000 C   0  0  0  0  0  0  0  0  0  0  0  0
   -1.8247    2.3842    0.0000 O   0  0  0  0  0  0  0  0  0  0  0  0
   -2.4081    1.8008    0.0000 N   0  0  0  0  0  0  0  0  0  0  0  0
   -2.0335    1.0657    0.0000 C   0  0  0  0  0  0  0  0  0  0  0  0
   -2.4081    0.3306    0.0000 C   0  0  0  0  0  0  0  0  0  0  0  0
   -1.9587   -0.3613    0.0000 C   0  0  0  0  0  0  0  0  0  0  0  0
   -1.1349   -0.3181    0.0000 Cl  0  0  0  0  0  0  0  0  0  0  0  0
   -2.3333   -1.0963    0.0000 C   0  0  0  0  0  0  0  0  0  0  0  0
   -3.1571   -1.1395    0.0000 C   0  0  0  0  0  0  0  0  0  0  0  0
   -3.6065   -0.4476    0.0000 C   0  0  0  0  0  0  0  0  0  0  0  0
   -3.2319    0.2875    0.0000 C   0  0  0  0  0  0  0  0  0  0  0  0
   -3.6813    0.9794    0.0000 Cl  0  0  0  0  0  0  0  0  0  0  0  0
   -0.3545    2.3842    0.0000 C   0  0  0  0  0  0  0  0  0  0  0  0
    2.6095   -1.6230    0.0000 C   0  0  0  0  0  0  0  0  0  0  0  0
    3.4165   -1.7945    0.0000 O   0  5  0  0  0  0  0  0  0  0  0  0
    2.0575   -2.2361    0.0000 O   0  0  0  0  0  0  0  0  0  0  0  0
    3.5582    0.2341    0.0000 C   0  0  0  0  0  0  0  0  0  0  0  0
    3.5582   -0.5759    0.0000 C   0  0  0  0  0  0  0  0  0  0  0  0
    4.2234   -1.9660    0.0000 Na  0  3  0  0  0  0  0  0  0  0  0  0
    6.5806    0.0000    0.0000 O   0  0  0  0  0  0  0  0  0  0  0  0
  1  2  1  0  0  0  0
  2  3  1  0  0  0  0
  3  4  1  0  0  0  0
  4  5  1  0  0  0  0
  1  5  1  0  0  0  0
  5  6  1  0  0  0  0
  6  7  2  0  0  0  0
  6  8  1  0  0  0  0
  1  8  1  0  0  0  0
  8  9  1  0  0  0  0
  9 10  1  0  0  0  0
 10 11  2  0  0  0  0
 10 12  1  0  0  0  0
 12 13  2  0  0  0  0
 13 14  1  0  0  0  0
 14 15  1  0  0  0  0
 15 16  2  0  0  0  0
 12 16  1  0  0  0  0
 16 17  1  0  0  0  0
 17 18  2  0  0  0  0
 18 19  1  0  0  0  0
 18 20  1  0  0  0  0
 20 21  2  0  0  0  0
 21 22  1  0  0  0  0
 22 23  2  0  0  0  0
 17 23  1  0  0  0  0
 23 24  1  0  0  0  0
 13 25  1  0  0  0  0
  4 26  1  0  0  0  0
 26 27  1  0  0  0  0
 26 28  2  0  0  0  0
  3 29  1  0  0  0  0
  3 30  1  0  0  0  0
M  CHG  2  27  -1  31   1
M  END
>  <Name>
Dicloxacillin sodium

>  <CAS>
13412-64-1

>  <Formula>
C19H17Cl2N3O5S.H2O.Na

>  <MolWt>
510.32 

>  <Bioactivity>
One of the PENICILLINS which is resistant to PENICILLINASE.


>  <Pathways>
Microbiology & Virology

>  <Target>
Antibiotic

>  <Receptor>
Others

>  <Reference>
1. Villegas-Guzman P, et al. J Environ Sci Health A Tox Hazard Subst Environ Eng. 2015;50(1):40-8. 

$$$$
T1259
  Mrv1561503291623562D          

 43 47  0  0  0  0            999 V2000
   -0.7805   -2.0571    0.0000 C   0  0  0  0  0  0  0  0  0  0  0  0
   -0.7805   -2.8821    0.0000 C   0  0  0  0  0  0  0  0  0  0  0  0
   -0.0660   -3.2946    0.0000 C   0  0  0  0  0  0  0  0  0  0  0  0
    0.6485   -2.8821    0.0000 C   0  0  0  0  0  0  0  0  0  0  0  0
    0.6485   -2.0571    0.0000 C   0  0  0  0  0  0  0  0  0  0  0  0
    1.3629   -1.6446    0.0000 C   0  0  0  0  0  0  0  0  0  0  0  0
    1.3629   -0.8196    0.0000 C   0  0  0  0  0  0  0  0  0  0  0  0
    0.6485   -0.4071    0.0000 C   0  0  0  0  0  0  0  0  0  0  0  0
   -0.0660   -0.8196    0.0000 C   0  0  0  0  0  0  0  0  0  0  0  0
   -0.0660   -1.6446    0.0000 C   0  0  0  0  0  0  0  0  0  0  0  0
   -0.7805   -0.4071    0.0000 C   0  0  0  0  0  0  0  0  0  0  0  0
   -0.7805    0.4179    0.0000 C   0  0  0  0  0  0  0  0  0  0  0  0
   -0.0660    0.8304    0.0000 C   0  0  0  0  0  0  0  0  0  0  0  0
   -0.0660    1.6554    0.0000 C   0  0  0  0  0  0  0  0  0  0  0  0
   -0.7805    2.0679    0.0000 C   0  0  0  0  0  0  0  0  0  0  0  0
   -1.4949    1.6554    0.0000 C   0  0  0  0  0  0  0  0  0  0  0  0
   -1.4949    0.8304    0.0000 C   0  0  0  0  0  0  0  0  0  0  0  0
   -2.2094    0.4179    0.0000 O   0  0  0  0  0  0  0  0  0  0  0  0
   -2.2094    2.0679    0.0000 C   0  0  0  0  0  0  0  0  0  0  0  0
   -2.9239    1.6554    0.0000 O   0  0  0  0  0  0  0  0  0  0  0  0
   -2.2094    2.8929    0.0000 O   0  0  0  0  0  0  0  0  0  0  0  0
    0.6485    2.0679    0.0000 C   0  0  0  0  0  0  0  0  0  0  0  0
    1.3629    1.6554    0.0000 C   0  0  0  0  0  0  0  0  0  0  0  0
    1.3629    0.8304    0.0000 C   0  0  0  0  0  0  0  0  0  0  0  0
    0.6485    0.4179    0.0000 C   0  0  0  0  0  0  0  0  0  0  0  0
    1.1334    0.2604    0.0000 O   0  0  0  0  0  0  0  0  0  0  0  0
    2.0774   -0.4071    0.0000 C   0  0  0  0  0  0  0  0  0  0  0  0
    2.0774    0.4179    0.0000 O   0  0  0  0  0  0  0  0  0  0  0  0
    2.7919   -0.8196    0.0000 O   0  0  0  0  0  0  0  0  0  0  0  0
    5.9105   -1.7664    0.0000 C   0  0  0  0  0  0  0  0  0  0  0  0
    6.5780   -1.2815    0.0000 C   0  0  0  0  0  0  0  0  0  0  0  0
    6.5780   -0.4565    0.0000 C   0  0  0  0  0  0  0  0  0  0  0  0
    5.8635   -0.0440    0.0000 C   0  0  0  0  0  0  0  0  0  0  0  0
    5.8635    0.7810    0.0000 C   0  0  0  0  0  0  0  0  0  0  0  0
    5.1490    1.1935    0.0000 N   0  0  0  0  0  0  0  0  0  0  0  0
    5.1490    2.0185    0.0000 C   0  0  0  0  0  0  0  0  0  0  0  0
    5.8635    2.4310    0.0000 C   0  0  0  0  0  0  0  0  0  0  0  0
    6.5780    2.0185    0.0000 C   0  0  0  0  0  0  0  0  0  0  0  0
    6.5780    1.1935    0.0000 N   0  0  0  0  0  0  0  0  0  0  0  0
    7.2924    0.7810    0.0000 C   0  0  0  0  0  0  0  0  0  0  0  0
    7.2454   -1.7664    0.0000 S   0  0  0  0  0  0  0  0  0  0  0  0
    6.9905   -2.5510    0.0000 C   0  0  0  0  0  0  0  0  0  0  0  0
    6.1655   -2.5510    0.0000 C   0  0  0  0  0  0  0  0  0  0  0  0
  1  2  2  0  0  0  0
  2  3  1  0  0  0  0
  3  4  2  0  0  0  0
  4  5  1  0  0  0  0
  5  6  2  0  0  0  0
  6  7  1  0  0  0  0
  7  8  2  0  0  0  0
  8  9  1  0  0  0  0
  9 10  2  0  0  0  0
  1 10  1  0  0  0  0
  5 10  1  0  0  0  0
  9 11  1  0  0  0  0
 11 12  1  0  0  0  0
 12 13  2  0  0  0  0
 13 14  1  0  0  0  0
 14 15  2  0  0  0  0
 15 16  1  0  0  0  0
 16 17  2  0  0  0  0
 12 17  1  0  0  0  0
 17 18  1  0  0  0  0
 16 19  1  0  0  0  0
 19 20  2  0  0  0  0
 19 21  1  0  0  0  0
 14 22  1  0  0  0  0
 22 23  2  0  0  0  0
 23 24  1  0  0  0  0
 24 25  2  0  0  0  0
 13 25  1  0  0  0  0
  8 26  1  0  0  0  0
  7 27  1  0  0  0  0
 27 28  2  0  0  0  0
 27 29  1  0  0  0  0
 30 31  2  0  0  0  0
 31 32  1  0  0  0  0
 32 33  2  0  0  0  0
 33 34  1  0  0  0  0
 34 35  2  0  0  0  0
 35 36  1  0  0  0  0
 36 37  1  0  0  0  0
 37 38  1  0  0  0  0
 38 39  1  0  0  0  0
 34 39  1  0  0  0  0
 39 40  1  0  0  0  0
 31 41  1  0  0  0  0
 41 42  1  0  0  0  0
 42 43  2  0  0  0  0
 30 43  1  0  0  0  0
M  END
>  <Name>
Pyrantel pamoate

>  <CAS>
22204-24-6

>  <Formula>
C34H30N2O6S

>  <MolWt>
594.69 

>  <Bioactivity>
Pyrantel pamoate is a deworming agent in the treatment of hookworms (all species) and roundworms in domesticated animal; acts as a depolarizing neuromuscular blocking agent.

>  <Pathways>
Microbiology & Virology 

>  <Target>
Antiparasitic

>  <Receptor>
Antiparasitic

>  <Reference>
1. Salman AB. J Pediatr Surg. 1997 Apr;32(4): 585-7.

$$$$
6893-02-3
  Mrv1561503291623562D          

 23 24  0  0  0  0            999 V2000
    2.8579   -1.6500    0.0000 C   0  0  0  0  0  0  0  0  0  0  0  0
    2.8579   -2.4750    0.0000 C   0  0  0  0  0  0  0  0  0  0  0  0
    3.5724   -2.8875    0.0000 C   0  0  0  0  0  0  0  0  0  0  0  0
    4.2868   -2.4750    0.0000 C   0  0  0  0  0  0  0  0  0  0  0  0
    5.0013   -2.8875    0.0000 C   0  0  0  0  0  0  0  0  0  0  0  0
    5.7158   -2.4750    0.0000 O   0  0  0  0  0  0  0  0  0  0  0  0
    5.0013   -3.7125    0.0000 O   0  0  0  0  0  0  0  0  0  0  0  0
    4.2868   -1.6500    0.0000 N   0  0  0  0  0  0  0  0  0  0  0  0
    2.1434   -2.8875    0.0000 C   0  0  0  0  0  0  0  0  0  0  0  0
    1.4289   -2.4750    0.0000 C   0  0  0  0  0  0  0  0  0  0  0  0
    1.4289   -1.6500    0.0000 C   0  0  0  0  0  0  0  0  0  0  0  0
    2.1434   -1.2375    0.0000 C   0  0  0  0  0  0  0  0  0  0  0  0
    2.1434   -0.4125    0.0000 I   0  0  0  0  0  0  0  0  0  0  0  0
    0.7145   -1.2375    0.0000 O   0  0  0  0  0  0  0  0  0  0  0  0
    0.7145   -0.4125    0.0000 C   0  0  0  0  0  0  0  0  0  0  0  0
    0.0000    0.0000    0.0000 C   0  0  0  0  0  0  0  0  0  0  0  0
    0.0000    0.8250    0.0000 C   0  0  0  0  0  0  0  0  0  0  0  0
    0.7145    1.2375    0.0000 C   0  0  0  0  0  0  0  0  0  0  0  0
    1.4289    0.8250    0.0000 C   0  0  0  0  0  0  0  0  0  0  0  0
    1.4289    0.0000    0.0000 C   0  0  0  0  0  0  0  0  0  0  0  0
    2.1434    1.2375    0.0000 I   0  0  0  0  0  0  0  0  0  0  0  0
    0.7145    2.0625    0.0000 O   0  0  0  0  0  0  0  0  0  0  0  0
    0.7145   -2.8875    0.0000 I   0  0  0  0  0  0  0  0  0  0  0  0
  1  2  2  0  0  0  0
  2  3  1  0  0  0  0
  3  4  1  0  0  0  0
  4  5  1  0  0  0  0
  5  6  1  0  0  0  0
  5  7  2  0  0  0  0
  4  8  1  0  0  0  0
  2  9  1  0  0  0  0
  9 10  2  0  0  0  0
 10 11  1  0  0  0  0
 11 12  2  0  0  0  0
  1 12  1  0  0  0  0
 12 13  1  0  0  0  0
 11 14  1  0  0  0  0
 14 15  1  0  0  0  0
 15 16  2  0  0  0  0
 16 17  1  0  0  0  0
 17 18  2  0  0  0  0
 18 19  1  0  0  0  0
 19 20  2  0  0  0  0
 15 20  1  0  0  0  0
 19 21  1  0  0  0  0
 18 22  1  0  0  0  0
 10 23  1  0  0  0  0
M  END
>  <Name>
Lyothyronine

>  <CAS>
6893-02-3

>  <Formula>
C15H12I3NO4

>  <MolWt>
650.97 

>  <Bioactivity>
Liothyronine is a T3 thyroid hormone normally synthesized and secreted by the thyroid gland in much smaller quantities than thyroxine (T4). Most T3 is derived from peripheral monodeiodination of T4 at the 5' position of the outer ring of the iodothyronine nucleus. The hormone finally delivered and used by the tissues is mainly T3.


>  <Pathways>
Endocrinology/ Hormones

>  <Target>
Thyroid hormone receptor agonist

>  <Receptor>
Thyroid hormone receptor

>  <Reference>
1. Jiang W, et al. J Endocrinol. 2004 Aug; 182(2):295-302.

$$$$
T0125
  Mrv1561503291623562D          

 41 43  0  0  1  0            999 V2000
    0.9020   -0.2587    0.0000 C   0  0  0  0  0  0  0  0  0  0  0  0
    0.9020   -1.0837    0.0000 O   0  0  0  0  0  0  0  0  0  0  0  0
    1.6165   -1.4962    0.0000 C   0  0  0  0  0  0  0  0  0  0  0  0
    2.3309   -1.0837    0.0000 O   0  0  0  0  0  0  0  0  0  0  0  0
    3.0454   -1.4962    0.0000 C   0  0  0  0  0  0  0  0  0  0  0  0
    3.0454   -2.3212    0.0000 C   0  0  0  0  0  0  0  0  0  0  0  0
    3.7599   -2.7337    0.0000 O   0  0  0  0  0  0  0  0  0  0  0  0
    2.3309   -2.7337    0.0000 C   0  0  0  0  0  0  0  0  0  0  0  0
    2.3309   -3.5587    0.0000 N   0  0  0  0  0  0  0  0  0  0  0  0
    1.6165   -2.3212    0.0000 C   0  0  0  0  0  0  0  0  0  0  0  0
    3.7599   -1.0837    0.0000 C   0  0  0  0  0  0  0  0  0  0  0  0
    1.6165    0.1538    0.0000 C   0  0  0  0  0  0  0  0  0  0  0  0
    1.6165    0.9788    0.0000 C   0  0  0  0  0  0  0  0  0  0  0  0
    2.4289    0.8355    0.0000 O   0  0  0  0  0  0  0  0  0  0  0  0
    0.9020    1.3913    0.0000 C   0  0  0  0  0  0  0  0  0  0  0  0
    0.1875    0.9788    0.0000 C   0  0  0  0  0  0  0  0  0  0  0  0
    0.1875    0.1538    0.0000 C   0  0  0  0  0  0  0  0  0  0  0  0
   -0.5270   -0.2587    0.0000 C   0  0  0  0  0  0  0  0  0  0  0  0
   -1.2414    0.1538    0.0000 C   0  0  0  0  0  0  0  0  0  0  0  0
   -1.2414    0.9788    0.0000 C   0  0  0  0  0  0  0  0  0  0  0  0
   -0.5270    1.3913    0.0000 C   0  0  0  0  0  0  0  0  0  0  0  0
   -0.5270    2.2163    0.0000 O   0  0  0  0  0  0  0  0  0  0  0  0
   -1.9559    1.3913    0.0000 C   0  0  0  0  0  0  0  0  0  0  0  0
   -1.9559    2.2163    0.0000 O   0  0  0  0  0  0  0  0  0  0  0  0
   -2.6704    0.9788    0.0000 C   0  0  0  0  0  0  0  0  0  0  0  0
   -2.6704    0.1538    0.0000 C   0  0  0  0  0  0  0  0  0  0  0  0
   -1.9559   -0.2587    0.0000 C   0  0  0  0  0  0  0  0  0  0  0  0
   -1.9559   -1.0837    0.0000 O   0  0  0  0  0  0  0  0  0  0  0  0
   -3.3848   -0.2587    0.0000 C   0  0  0  0  0  0  0  0  0  0  0  0
   -4.0993    0.1538    0.0000 C   0  0  0  0  0  0  0  0  0  0  0  0
   -4.0993    0.9788    0.0000 C   0  0  0  0  0  0  0  0  0  0  0  0
   -3.3848    1.3913    0.0000 C   0  0  0  0  0  0  0  0  0  0  0  0
   -3.3848   -1.0837    0.0000 O   0  0  0  0  0  0  0  0  0  0  0  0
   -4.0993   -1.4962    0.0000 C   0  0  0  0  0  0  0  0  0  0  0  0
   -0.5270   -1.0837    0.0000 O   0  0  0  0  0  0  0  0  0  0  0  0
    1.8986    1.7540    0.0000 C   0  0  0  0  0  0  0  0  0  0  0  0
    2.7111    1.8973    0.0000 O   0  0  0  0  0  0  0  0  0  0  0  0
    1.3683    2.3860    0.0000 C   0  0  0  0  0  0  0  0  0  0  0  0
    1.6505    3.1613    0.0000 O   0  0  0  0  0  0  0  0  0  0  0  0
    6.9420    0.0000    0.0000 H   0  3  0  0  0  0  0  0  0  0  0  0
    6.1170    0.0000    0.0000 Cl  0  5  0  0  0  0  0  0  0  0  0  0
  1  2  1  0  0  0  0
  2  3  1  0  0  0  0
  3  4  1  0  0  0  0
  4  5  1  0  0  0  0
  5  6  1  0  0  0  0
  6  7  1  0  0  0  0
  6  8  1  0  0  0  0
  8  9  1  0  0  0  0
  8 10  1  0  0  0  0
  3 10  1  0  0  0  0
  5 11  1  0  0  0  0
  1 12  1  0  0  0  0
 12 13  1  0  0  0  0
 13 14  1  0  0  0  0
 13 15  1  0  0  0  0
 15 16  1  0  0  0  0
 16 17  2  0  0  0  0
  1 17  1  0  0  0  0
 17 18  1  0  0  0  0
 18 19  2  0  0  0  0
 19 20  1  0  0  0  0
 20 21  2  0  0  0  0
 16 21  1  0  0  0  0
 21 22  1  0  0  0  0
 20 23  1  0  0  0  0
 23 24  2  0  0  0  0
 23 25  1  0  0  0  0
 25 26  2  0  0  0  0
 26 27  1  0  0  0  0
 19 27  1  0  0  0  0
 27 28  2  0  0  0  0
 26 29  1  0  0  0  0
 29 30  2  0  0  0  0
 30 31  1  0  0  0  0
 31 32  2  0  0  0  0
 25 32  1  0  0  0  0
 29 33  1  0  0  0  0
 33 34  1  0  0  0  0
 18 35  1  0  0  0  0
 13 36  1  0  0  0  0
 36 37  2  0  0  0  0
 36 38  1  0  0  0  0
 38 39  1  0  0  0  0
M  CHG  2  40   1  41  -1
M  END
>  <Name>
Epirubicin HCl

>  <CAS>
56390-09-1

>  <Formula>
C27H30ClNO11

>  <MolWt>
579.98 

>  <Bioactivity>
Epirubicin HCl, a semisynthetic L-arabino derivative of doxorubicin, is an antineoplastic agent by inhibiting Topoisomerase.

>  <Pathways>
Enzyme;DNA Damage/DNA Repair

>  <Target>
PLA inhibitor;Topoisomerase inhibitor

>  <Receptor>
cPLA2;Topoisomerase II

>  <Reference>
1. Grataroli R, et al. Biochem Pharmacol. 1993 Aug 3;46(3):349-55. 

$$$$
T1122
  Mrv1561503291623562D          

 27 28  0  0  1  0            999 V2000
    1.6905   -0.1510    0.0000 C   0  0  0  0  0  0  0  0  0  0  0  0
    2.4049    0.2615    0.0000 S   0  0  0  0  0  0  0  0  0  0  0  0
    3.1194   -0.1510    0.0000 C   0  0  0  0  0  0  0  0  0  0  0  0
    3.1194   -0.9760    0.0000 C   0  0  0  0  0  0  0  0  0  0  0  0
    2.4049   -1.3885    0.0000 C   0  0  0  0  0  0  0  0  0  0  0  0
    1.6905   -0.9760    0.0000 N   0  0  0  0  0  0  0  0  0  0  0  0
    0.8655   -0.9760    0.0000 C   0  0  0  0  0  0  0  0  0  0  0  0
    0.2821   -1.5593    0.0000 O   0  0  0  0  0  0  0  0  0  0  0  0
    0.8655   -0.1510    0.0000 C   0  0  0  0  0  0  0  0  0  0  0  0
    0.2821    0.4324    0.0000 N   0  0  0  0  0  0  0  0  0  0  0  0
   -0.5148    0.2189    0.0000 C   0  0  0  0  0  0  0  0  0  0  0  0
   -0.7283   -0.5780    0.0000 O   0  0  0  0  0  0  0  0  0  0  0  0
   -1.0982    0.8022    0.0000 C   0  0  0  0  0  0  0  0  0  0  0  0
   -1.8950    0.5887    0.0000 C   0  0  0  0  0  0  0  0  0  0  0  0
   -2.1907   -0.1815    0.0000 C   0  0  0  0  0  0  0  0  0  0  0  0
   -3.0146   -0.1383    0.0000 C   0  0  0  0  0  0  0  0  0  0  0  0
   -3.2281    0.6586    0.0000 C   0  0  0  0  0  0  0  0  0  0  0  0
   -2.5362    1.1079    0.0000 S   0  0  0  0  0  0  0  0  0  0  0  0
    2.4049   -2.2135    0.0000 C   0  0  0  0  0  0  0  0  0  0  0  0
    1.6905   -2.6260    0.0000 O   0  5  0  0  0  0  0  0  0  0  0  0
    3.1194   -2.6260    0.0000 O   0  0  0  0  0  0  0  0  0  0  0  0
    3.8339   -1.3885    0.0000 C   0  0  0  0  0  0  0  0  0  0  0  0
    4.5483   -0.9760    0.0000 O   0  0  0  0  0  0  0  0  0  0  0  0
    5.2628   -1.3885    0.0000 C   0  0  0  0  0  0  0  0  0  0  0  0
    5.9773   -0.9760    0.0000 O   0  0  0  0  0  0  0  0  0  0  0  0
    5.2628   -2.2135    0.0000 C   0  0  0  0  0  0  0  0  0  0  0  0
    0.9760   -3.0385    0.0000 Na  0  3  0  0  0  0  0  0  0  0  0  0
  1  2  1  0  0  0  0
  2  3  1  0  0  0  0
  3  4  1  0  0  0  0
  4  5  2  0  0  0  0
  5  6  1  0  0  0  0
  1  6  1  0  0  0  0
  6  7  1  0  0  0  0
  7  8  2  0  0  0  0
  7  9  1  0  0  0  0
  1  9  1  0  0  0  0
  9 10  1  0  0  0  0
 10 11  1  0  0  0  0
 11 12  2  0  0  0  0
 11 13  1  0  0  0  0
 13 14  1  0  0  0  0
 14 15  2  0  0  0  0
 15 16  1  0  0  0  0
 16 17  2  0  0  0  0
 17 18  1  0  0  0  0
 14 18  1  0  0  0  0
  5 19  1  0  0  0  0
 19 20  1  0  0  0  0
 19 21  2  0  0  0  0
  4 22  1  0  0  0  0
 22 23  1  0  0  0  0
 23 24  1  0  0  0  0
 24 25  2  0  0  0  0
 24 26  1  0  0  0  0
M  CHG  2  20  -1  27   1
M  END
>  <Name>
Cephalothin

>  <CAS>
58-71-9

>  <Formula>
C16H15N2NaO6S2

>  <MolWt>
418.40 

>  <Bioactivity>
A cephalosporin antibiotic.

>  <Pathways>
Microbiology & Virology

>  <Target>
Antibacterial

>  <Receptor>
PBPs

>  <Reference>
1. Williamson R, et al. Antimicrob Agents Chemother. 1980 Oct;18(4):629-37.

$$$$
6933-90-0
  Mrv1561503291623562D          

 16 14  0  0  0  0            999 V2000
    0.4125    0.0000    0.0000 H   0  3  0  0  0  0  0  0  0  0  0  0
    3.7272    0.8545    0.0000 C   0  0  0  0  0  0  0  0  0  0  0  0
    3.7272    0.0295    0.0000 C   0  0  0  0  0  0  0  0  0  0  0  0
    4.4416   -0.3830    0.0000 C   0  0  0  0  0  0  0  0  0  0  0  0
    4.4416   -1.2080    0.0000 O   0  0  0  0  0  0  0  0  0  0  0  0
    5.1561    0.0295    0.0000 C   0  0  0  0  0  0  0  0  0  0  0  0
    5.8706   -0.3830    0.0000 N   0  0  0  0  0  0  0  0  0  0  0  0
    6.5850    0.0295    0.0000 C   0  0  0  0  0  0  0  0  0  0  0  0
    7.2995   -0.3830    0.0000 C   0  0  0  0  0  0  0  0  0  0  0  0
    6.5850    0.8545    0.0000 C   0  0  0  0  0  0  0  0  0  0  0  0
    3.0127   -0.3830    0.0000 C   0  0  0  0  0  0  0  0  0  0  0  0
    2.2982    0.0295    0.0000 C   0  0  0  0  0  0  0  0  0  0  0  0
    2.2982    0.8545    0.0000 C   0  0  0  0  0  0  0  0  0  0  0  0
    3.0127    1.2670    0.0000 C   0  0  0  0  0  0  0  0  0  0  0  0
    3.0127   -1.2080    0.0000 Cl  0  0  0  0  0  0  0  0  0  0  0  0
   -0.4125    0.0000    0.0000 Cl  0  5  0  0  0  0  0  0  0  0  0  0
  2  3  2  0  0  0  0
  3  4  1  0  0  0  0
  4  5  1  0  0  0  0
  4  6  1  0  0  0  0
  6  7  1  0  0  0  0
  7  8  1  0  0  0  0
  8  9  1  0  0  0  0
  8 10  1  0  0  0  0
  3 11  1  0  0  0  0
 11 12  2  0  0  0  0
 12 13  1  0  0  0  0
 13 14  2  0  0  0  0
  2 14  1  0  0  0  0
 11 15  1  0  0  0  0
M  CHG  2   1   1  16  -1
M  END
>  <Name>
Clorprenaline HCl

>  <CAS>
6933-90-0

>  <Formula>
C11H17Cl2NO

>  <MolWt>
250.16 

>  <Bioactivity>
Clorprenaline HCl is a ?2-receptor agonist, it has a significant expansion of the bronchial effect.

>  <Pathways>
GPCR/G Protein

>  <Target>
Adrenergic Receptor antagonist

>  <Receptor>
?-adrenergic receptor

>  <Reference>
1. Shen S, et al. J Pharm Biomed Anal, 2005, 38(1), 166-172.

$$$$
T0100
  Mrv1561503291623562D          

 56 57  0  0  1  0            999 V2000
    0.3004    2.7505    0.0000 C   0  0  2  0  0  0  0  0  0  0  0  0
   -0.5097    2.9064    0.0000 N   0  0  0  0  0  0  0  0  0  0  0  0
   -1.0498    2.2828    0.0000 C   0  0  0  0  0  0  0  0  0  0  0  0
   -1.8599    2.4387    0.0000 O   0  0  0  0  0  0  0  0  0  0  0  0
   -2.4000    1.8151    0.0000 C   0  0  0  0  0  0  0  0  0  0  0  0
   -0.7797    1.5032    0.0000 O   0  0  0  0  0  0  0  0  0  0  0  0
    0.5705    1.9710    0.0000 C   0  0  0  0  0  0  0  0  0  0  0  0
    0.0304    1.3473    0.0000 O   0  0  0  0  0  0  0  0  0  0  0  0
    1.3806    1.8151    0.0000 N   0  0  0  0  0  0  0  0  0  0  0  0
    1.6507    1.0355    0.0000 C   0  0  2  0  0  0  0  0  0  0  0  0
    1.1106    0.4119    0.0000 C   0  0  1  0  0  0  0  0  0  0  0  0
    0.3004    0.5678    0.0000 O   0  0  0  0  0  0  0  0  0  0  0  0
    1.3806   -0.3677    0.0000 C   0  0  0  0  0  0  0  0  0  0  0  0
    0.8405   -0.9913    0.0000 N   0  0  0  0  0  0  0  0  0  0  0  0
    0.0304   -0.8354    0.0000 N   0  0  0  0  0  0  0  0  0  0  0  0
   -0.2397   -0.0559    0.0000 C   0  0  0  0  0  0  0  0  0  0  0  0
   -0.1693    0.7661    0.0000 O   0  0  0  0  0  0  0  0  0  0  0  0
   -1.0498    0.1001    0.0000 C   0  0  1  0  0  0  0  0  0  0  0  0
   -1.5899   -0.5236    0.0000 N   0  0  0  0  0  0  0  0  0  0  0  0
   -2.4000   -0.3677    0.0000 C   0  0  0  0  0  0  0  0  0  0  0  0
   -2.9401   -0.9913    0.0000 O   0  0  0  0  0  0  0  0  0  0  0  0
   -3.7502   -0.8354    0.0000 C   0  0  0  0  0  0  0  0  0  0  0  0
   -2.6701    0.4119    0.0000 O   0  0  0  0  0  0  0  0  0  0  0  0
   -1.3198    0.8796    0.0000 C   0  0  0  0  0  0  0  0  0  0  0  0
   -1.5899    1.6592    0.0000 C   0  0  0  0  0  0  0  0  0  0  0  0
   -2.0994    0.6096    0.0000 C   0  0  0  0  0  0  0  0  0  0  0  0
   -0.5403    1.1496    0.0000 C   0  0  0  0  0  0  0  0  0  0  0  0
    1.1106   -1.7709    0.0000 C   0  0  0  0  0  0  0  0  0  0  0  0
    0.5705   -2.3945    0.0000 C   0  0  0  0  0  0  0  0  0  0  0  0
    0.8405   -3.1741    0.0000 C   0  0  0  0  0  0  0  0  0  0  0  0
    0.3004   -3.7977    0.0000 C   0  0  0  0  0  0  0  0  0  0  0  0
   -0.5097   -3.6418    0.0000 C   0  0  0  0  0  0  0  0  0  0  0  0
   -1.0498   -4.2654    0.0000 C   0  0  0  0  0  0  0  0  0  0  0  0
   -0.7797   -5.0450    0.0000 N   0  0  0  0  0  0  0  0  0  0  0  0
   -1.3198   -5.6686    0.0000 C   0  0  0  0  0  0  0  0  0  0  0  0
   -2.1300   -5.5127    0.0000 C   0  0  0  0  0  0  0  0  0  0  0  0
   -2.4000   -4.7332    0.0000 C   0  0  0  0  0  0  0  0  0  0  0  0
   -1.8599   -4.1095    0.0000 C   0  0  0  0  0  0  0  0  0  0  0  0
   -0.7797   -2.8622    0.0000 C   0  0  0  0  0  0  0  0  0  0  0  0
   -0.2397   -2.2386    0.0000 C   0  0  0  0  0  0  0  0  0  0  0  0
    2.4608    0.8796    0.0000 C   0  0  0  0  0  0  0  0  0  0  0  0
    3.0009    1.5032    0.0000 C   0  0  0  0  0  0  0  0  0  0  0  0
    2.7308    2.2828    0.0000 C   0  0  0  0  0  0  0  0  0  0  0  0
    3.2709    2.9064    0.0000 C   0  0  0  0  0  0  0  0  0  0  0  0
    4.0811    2.7505    0.0000 C   0  0  0  0  0  0  0  0  0  0  0  0
    4.3511    1.9710    0.0000 C   0  0  0  0  0  0  0  0  0  0  0  0
    3.8110    1.3473    0.0000 C   0  0  0  0  0  0  0  0  0  0  0  0
    0.8405    3.3742    0.0000 C   0  0  0  0  0  0  0  0  0  0  0  0
    1.4642    2.8341    0.0000 C   0  0  0  0  0  0  0  0  0  0  0  0
    0.2169    3.9143    0.0000 C   0  0  0  0  0  0  0  0  0  0  0  0
    1.3806    3.9978    0.0000 C   0  0  0  0  0  0  0  0  0  0  0  0
    7.0618   -0.8250    0.0000 O   0  0  0  0  0  0  0  0  0  0  0  0
    7.0618    0.0000    0.0000 S   0  0  0  0  0  0  0  0  0  0  0  0
    7.0618    0.8250    0.0000 O   0  0  0  0  0  0  0  0  0  0  0  0
    7.8868   -0.0000    0.0000 O   0  0  0  0  0  0  0  0  0  0  0  0
    6.2368    0.0000    0.0000 O   0  0  0  0  0  0  0  0  0  0  0  0
  1  2  1  1  0  0  0
  2  3  1  0  0  0  0
  3  4  1  0  0  0  0
  4  5  1  0  0  0  0
  3  6  2  0  0  0  0
  1  7  1  0  0  0  0
  7  8  2  0  0  0  0
  7  9  1  0  0  0  0
 10  9  1  1  0  0  0
 10 11  1  0  0  0  0
 11 12  1  6  0  0  0
 11 13  1  0  0  0  0
 13 14  1  0  0  0  0
 14 15  1  0  0  0  0
 15 16  1  0  0  0  0
 16 17  2  0  0  0  0
 16 18  1  0  0  0  0
 18 19  1  1  0  0  0
 19 20  1  0  0  0  0
 20 21  1  0  0  0  0
 21 22  1  0  0  0  0
 20 23  2  0  0  0  0
 18 24  1  0  0  0  0
 24 25  1  0  0  0  0
 24 26  1  0  0  0  0
 24 27  1  0  0  0  0
 14 28  1  0  0  0  0
 28 29  1  0  0  0  0
 29 30  2  0  0  0  0
 30 31  1  0  0  0  0
 31 32  2  0  0  0  0
 32 33  1  0  0  0  0
 33 34  2  0  0  0  0
 34 35  1  0  0  0  0
 35 36  2  0  0  0  0
 36 37  1  0  0  0  0
 37 38  2  0  0  0  0
 33 38  1  0  0  0  0
 32 39  1  0  0  0  0
 39 40  2  0  0  0  0
 29 40  1  0  0  0  0
 10 41  1  0  0  0  0
 41 42  1  0  0  0  0
 42 43  2  0  0  0  0
 43 44  1  0  0  0  0
 44 45  2  0  0  0  0
 45 46  1  0  0  0  0
 46 47  2  0  0  0  0
 42 47  1  0  0  0  0
  1 48  1  0  0  0  0
 48 49  1  0  0  0  0
 48 50  1  0  0  0  0
 48 51  1  0  0  0  0
 52 53  2  0  0  0  0
 53 54  2  0  0  0  0
 53 55  1  0  0  0  0
 53 56  1  0  0  0  0
M  END
>  <Name>
Atazanavir sulfate

>  <CAS>
229975-97-7

>  <Formula>
C38H52N6O7.H2SO4

>  <MolWt>
802.93 

>  <Bioactivity>
Atazanavir (formerly known as BMS-232632) is an antiretroviral drug of the protease inhibitor (PI) class. Like other antiretrovirals, it is used to treat infection of human immunodeficiency virus (HIV). Atazanavir is distinguished from other PIs in that it can be given once-daily (rather than requiring multiple doses per day) and has lesser effects on the patient’s lipid profile (the amounts of cholesterol and other fatty substances in the blood). Like other protease inhibitors, it is used only in combination with other HIV medications. The U.S. Food and Drug Administration (FDA) approved atazanavir on June 20, 2003. 

>  <Pathways>
Proteases/Proteasome; Microbiology & Virology

>  <Target>
HIV Protease inhibitor

>  <Receptor>
HIV Protease

>  <Reference>
1. Dierynck I, et al. J Virol. 2007 Oct 10;

$$$$
26159-34-2
  Mrv1561503291623562D          

 18 18  0  0  1  0            999 V2000
   -0.0000    0.0000    0.0000 C   0  0  0  0  0  0  0  0  0  0  0  0
    0.7145   -0.4125    0.0000 C   0  0  0  0  0  0  0  0  0  0  0  0
    1.4289   -0.0000    0.0000 C   0  0  0  0  0  0  0  0  0  0  0  0
    2.1434   -0.4125    0.0000 C   0  0  0  0  0  0  0  0  0  0  0  0
    2.8579   -0.0000    0.0000 C   0  0  0  0  0  0  0  0  0  0  0  0
    3.5724   -0.4125    0.0000 C   0  0  0  0  0  0  0  0  0  0  0  0
    3.5724   -1.2375    0.0000 C   0  0  0  0  0  0  0  0  0  0  0  0
    4.2868   -1.6500    0.0000 O   0  0  0  0  0  0  0  0  0  0  0  0
    4.2868   -2.4750    0.0000 C   0  0  0  0  0  0  0  0  0  0  0  0
    2.8579   -1.6500    0.0000 C   0  0  0  0  0  0  0  0  0  0  0  0
    2.1434   -1.2375    0.0000 C   0  0  0  0  0  0  0  0  0  0  0  0
    1.4289   -1.6500    0.0000 C   0  0  0  0  0  0  0  0  0  0  0  0
    0.7145   -1.2375    0.0000 C   0  0  0  0  0  0  0  0  0  0  0  0
   -0.0000    0.8250    0.0000 C   0  0  0  0  0  0  0  0  0  0  0  0
   -0.7145    1.2375    0.0000 O   0  5  0  0  0  0  0  0  0  0  0  0
    0.7145    1.2375    0.0000 O   0  0  0  0  0  0  0  0  0  0  0  0
   -0.7145   -0.4125    0.0000 C   0  0  0  0  0  0  0  0  0  0  0  0
   -1.4289    1.6500    0.0000 Na  0  3  0  0  0  0  0  0  0  0  0  0
  1  2  1  0  0  0  0
  2  3  2  0  0  0  0
  3  4  1  0  0  0  0
  4  5  2  0  0  0  0
  5  6  1  0  0  0  0
  6  7  2  0  0  0  0
  7  8  1  0  0  0  0
  8  9  1  0  0  0  0
  7 10  1  0  0  0  0
 10 11  2  0  0  0  0
  4 11  1  0  0  0  0
 11 12  1  0  0  0  0
 12 13  2  0  0  0  0
  2 13  1  0  0  0  0
  1 14  1  0  0  0  0
 14 15  1  0  0  0  0
 14 16  2  0  0  0  0
  1 17  1  0  0  0  0
M  CHG  2  15  -1  18   1
M  END
>  <Name>
Naproxen sodium

>  <CAS>
26159-34-2

>  <Formula>
C14H13NaO3

>  <MolWt>
252.24 

>  <Bioactivity>
An anti-inflammatory agent with analgesic and antipyretic properties. Both the acid and its sodium salt are used in the treatment of rheumatoid arthritis and other rheumatic or musculoskeletal disorders, dysmenorrhea, and acute gout. 

>  <Pathways>
Neuroscience

>  <Target>
COX

>  <Receptor>
Prostaglandin G/H synthase1/2

>  <Reference>
1. Mitchell JA, et al. Proc Natl Acad Sci, 1993, 90(24), 11693-11697.

$$$$
64019-93-8
  Mrv1561503291623562D          

 27 25  0  0  0  0            999 V2000
    0.4125    0.0000    0.0000 H   0  3  0  0  0  0  0  0  0  0  0  0
    6.3420   -0.4620    0.0000 C   0  0  0  0  0  0  0  0  0  0  0  0
    6.3420   -1.2870    0.0000 C   0  0  0  0  0  0  0  0  0  0  0  0
    7.0565   -1.6995    0.0000 C   0  0  0  0  0  0  0  0  0  0  0  0
    7.0565   -2.5245    0.0000 O   0  0  0  0  0  0  0  0  0  0  0  0
    7.7709   -1.2870    0.0000 C   0  0  0  0  0  0  0  0  0  0  0  0
    8.4854   -1.6995    0.0000 N   0  0  0  0  0  0  0  0  0  0  0  0
    9.1999   -1.2870    0.0000 C   0  0  0  0  0  0  0  0  0  0  0  0
    5.6275   -1.6995    0.0000 C   0  0  0  0  0  0  0  0  0  0  0  0
    4.9131   -1.2870    0.0000 C   0  0  0  0  0  0  0  0  0  0  0  0
    4.9131   -0.4620    0.0000 C   0  0  0  0  0  0  0  0  0  0  0  0
    5.6275   -0.0495    0.0000 C   0  0  0  0  0  0  0  0  0  0  0  0
    5.6275    0.7755    0.0000 O   0  0  0  0  0  0  0  0  0  0  0  0
    6.3420    1.1880    0.0000 C   0  0  0  0  0  0  0  0  0  0  0  0
    6.3420    2.0130    0.0000 O   0  0  0  0  0  0  0  0  0  0  0  0
    7.0565    0.7755    0.0000 C   0  0  0  0  0  0  0  0  0  0  0  0
    6.6440    0.0610    0.0000 C   0  0  0  0  0  0  0  0  0  0  0  0
    7.4690    1.4900    0.0000 C   0  0  0  0  0  0  0  0  0  0  0  0
    7.7709    0.3630    0.0000 C   0  0  0  0  0  0  0  0  0  0  0  0
    4.1986   -0.0495    0.0000 O   0  0  0  0  0  0  0  0  0  0  0  0
    4.1986    0.7755    0.0000 C   0  0  0  0  0  0  0  0  0  0  0  0
    4.9131    1.1880    0.0000 O   0  0  0  0  0  0  0  0  0  0  0  0
    3.4841    1.1880    0.0000 C   0  0  0  0  0  0  0  0  0  0  0  0
    2.7696    1.6005    0.0000 C   0  0  0  0  0  0  0  0  0  0  0  0
    3.8966    1.9025    0.0000 C   0  0  0  0  0  0  0  0  0  0  0  0
    3.0716    0.4735    0.0000 C   0  0  0  0  0  0  0  0  0  0  0  0
   -0.4125    0.0000    0.0000 Cl  0  5  0  0  0  0  0  0  0  0  0  0
  2  3  2  0  0  0  0
  3  4  1  0  0  0  0
  4  5  1  0  0  0  0
  4  6  1  0  0  0  0
  6  7  1  0  0  0  0
  7  8  1  0  0  0  0
  3  9  1  0  0  0  0
  9 10  2  0  0  0  0
 10 11  1  0  0  0  0
 11 12  2  0  0  0  0
  2 12  1  0  0  0  0
 12 13  1  0  0  0  0
 13 14  1  0  0  0  0
 14 15  2  0  0  0  0
 14 16  1  0  0  0  0
 16 17  1  0  0  0  0
 16 18  1  0  0  0  0
 16 19  1  0  0  0  0
 11 20  1  0  0  0  0
 20 21  1  0  0  0  0
 21 22  2  0  0  0  0
 21 23  1  0  0  0  0
 23 24  1  0  0  0  0
 23 25  1  0  0  0  0
 23 26  1  0  0  0  0
M  CHG  2   1   1  27  -1
M  END
>  <Name>
Dipivefrin HCl

>  <CAS>
64019-93-8

>  <Formula>
C19H27NO5.HClO4

>  <MolWt>
387.90 

>  <Bioactivity>
Dipivefrin is a prodrug of adrenaline, which is used to treat glaucoma. It is available as ophthalmic solution (eye drops). 

>  <Pathways>
Neuroscience;GPCR/G protein

>  <Target>
Adrenergic Receptor antagonist;ChE potentiator

>  <Receptor>
Adrenergic Receptor;ChE

>  <Reference>
1. Nakamura M, et al. Ophthalmic Res. 1993;25(1):46-51.

$$$$
T1267
  Mrv1561503291623562D          

 21 24  0  0  1  0            999 V2000
   -0.3984   -2.1500    0.0000 C   0  0  2  0  0  0  0  0  0  0  0  0
   -0.1435   -1.3654    0.0000 N   0  0  0  0  0  0  0  0  0  0  0  0
    0.6411   -1.1104    0.0000 C   0  0  0  0  0  0  0  0  0  0  0  0
    0.6411   -0.2854    0.0000 C   0  0  0  0  0  0  0  0  0  0  0  0
    1.3556    0.1271    0.0000 C   0  0  0  0  0  0  0  0  0  0  0  0
    2.0701   -0.2854    0.0000 N   0  0  0  0  0  0  0  0  0  0  0  0
    2.0701   -1.1104    0.0000 C   0  0  0  0  0  0  0  0  0  0  0  0
    1.3556   -1.5229    0.0000 N   0  0  0  0  0  0  0  0  0  0  0  0
    2.7845   -1.5229    0.0000 N   0  0  0  0  0  0  0  0  0  0  0  0
    1.3556    0.9521    0.0000 N   0  0  0  0  0  0  0  0  0  0  0  0
    2.0701    1.3646    0.0000 C   0  0  0  0  0  0  0  0  0  0  0  0
    2.4826    2.0790    0.0000 C   0  0  0  0  0  0  0  0  0  0  0  0
    2.8951    1.3646    0.0000 C   0  0  0  0  0  0  0  0  0  0  0  0
   -0.1435   -0.0305    0.0000 N   0  0  0  0  0  0  0  0  0  0  0  0
   -0.6284   -0.6979    0.0000 C   0  0  0  0  0  0  0  0  0  0  0  0
    0.0865   -2.8174    0.0000 C   0  0  0  0  0  0  0  0  0  0  0  0
   -0.3984   -3.4849    0.0000 C   0  0  2  0  0  0  0  0  0  0  0  0
   -0.1435   -4.2695    0.0000 C   0  0  0  0  0  0  0  0  0  0  0  0
    0.6635   -4.4410    0.0000 O   0  0  0  0  0  0  0  0  0  0  0  0
   -1.1831   -3.2299    0.0000 C   0  0  0  0  0  0  0  0  0  0  0  0
   -1.1831   -2.4049    0.0000 C   0  0  0  0  0  0  0  0  0  0  0  0
  1  2  1  6  0  0  0
  2  3  1  0  0  0  0
  3  4  2  0  0  0  0
  4  5  1  0  0  0  0
  5  6  2  0  0  0  0
  6  7  1  0  0  0  0
  7  8  2  0  0  0  0
  3  8  1  0  0  0  0
  7  9  1  0  0  0  0
  5 10  1  0  0  0  0
 10 11  1  0  0  0  0
 11 12  1  0  0  0  0
 12 13  1  0  0  0  0
 11 13  1  0  0  0  0
  4 14  1  0  0  0  0
 14 15  2  0  0  0  0
  2 15  1  0  0  0  0
  1 16  1  0  0  0  0
 16 17  1  0  0  0  0
 17 18  1  6  0  0  0
 18 19  1  0  0  0  0
 17 20  1  0  0  0  0
 20 21  2  0  0  0  0
  1 21  1  0  0  0  0
M  END
>  <Name>
Abacavir

>  <CAS>
136470-78-5

>  <Formula>
C14H18N6O

>  <MolWt>
286.34 

>  <Bioactivity>
Abacavir (ABC) is a powerful nucleoside analog reverse transcriptase inhibitor (NRTI) used to treat HIV and AIDS.  Chemically, it is a synthetic carbocyclic nucleoside and is the enantiomer with 1S, 4R absolute configuration on the cyclopentene ring. In vivo, abacavir sulfate dissociates to its free base, abacavir. 

>  <Pathways>
DNA Damage/DNA Repair;Microbiology & Virology

>  <Target>
Reverse Transcriptase inhibitor

>  <Receptor>
HIV-1 reverse-transcriptase

>  <Reference>
1. Mallal S, et al. Lancet, 2002, 359(9308), 727-732.

$$$$
96946-42-8
  Mrv1561503291623562D          

 87 92  0  0  1  0            999 V2000
   -5.5786    0.6361    0.0000 C   0  0  2  0  0  0  0  0  0  0  0  0
   -6.0158   -0.0635    0.0000 C   0  0  0  0  0  0  0  0  0  0  0  0
   -5.6285   -0.7919    0.0000 C   0  0  0  0  0  0  0  0  0  0  0  0
   -6.0657   -1.4916    0.0000 C   0  0  0  0  0  0  0  0  0  0  0  0
   -6.8901   -1.4628    0.0000 C   0  0  0  0  0  0  0  0  0  0  0  0
   -7.3273   -2.1624    0.0000 O   0  0  0  0  0  0  0  0  0  0  0  0
   -8.1518   -2.1336    0.0000 C   0  0  0  0  0  0  0  0  0  0  0  0
   -7.2775   -0.7343    0.0000 C   0  0  0  0  0  0  0  0  0  0  0  0
   -6.8403   -0.0347    0.0000 C   0  0  0  0  0  0  0  0  0  0  0  0
   -8.1020   -0.7055    0.0000 O   0  0  0  0  0  0  0  0  0  0  0  0
   -8.4893    0.0229    0.0000 C   0  0  0  0  0  0  0  0  0  0  0  0
   -4.8040   -0.8207    0.0000 C   0  0  0  0  0  0  0  0  0  0  0  0
   -4.3668   -0.1211    0.0000 C   0  0  0  0  0  0  0  0  0  0  0  0
   -4.7541    0.6074    0.0000 N   0  3  2  0  0  0  0  0  0  0  0  0
   -4.0396    1.0199    0.0000 C   0  0  0  0  0  0  0  0  0  0  0  0
   -3.3252    0.6074    0.0000 C   0  0  0  0  0  0  0  0  0  0  0  0
   -2.6107    1.0199    0.0000 C   0  0  0  0  0  0  0  0  0  0  0  0
   -1.8962    0.6074    0.0000 O   0  0  0  0  0  0  0  0  0  0  0  0
   -1.1817    1.0199    0.0000 C   0  0  0  0  0  0  0  0  0  0  0  0
   -0.4673    0.6074    0.0000 C   0  0  0  0  0  0  0  0  0  0  0  0
    0.2472    1.0199    0.0000 C   0  0  0  0  0  0  0  0  0  0  0  0
    0.9617    0.6074    0.0000 C   0  0  0  0  0  0  0  0  0  0  0  0
    1.6761    1.0199    0.0000 C   0  0  0  0  0  0  0  0  0  0  0  0
    2.3906    0.6074    0.0000 O   0  0  0  0  0  0  0  0  0  0  0  0
    3.1051    1.0199    0.0000 C   0  0  0  0  0  0  0  0  0  0  0  0
    3.8196    0.6074    0.0000 C   0  0  0  0  0  0  0  0  0  0  0  0
    4.5340    1.0199    0.0000 C   0  0  0  0  0  0  0  0  0  0  0  0
    5.2485    0.6074    0.0000 N   0  3  2  0  0  0  0  0  0  0  0  0
    5.7788   -0.0246    0.0000 C   0  0  1  0  0  0  0  0  0  0  0  0
    6.5913    0.1186    0.0000 C   0  0  0  0  0  0  0  0  0  0  0  0
    6.8734    0.8939    0.0000 C   0  0  0  0  0  0  0  0  0  0  0  0
    7.6859    1.0371    0.0000 C   0  0  0  0  0  0  0  0  0  0  0  0
    8.2162    0.4051    0.0000 C   0  0  0  0  0  0  0  0  0  0  0  0
    9.0287    0.5484    0.0000 O   0  0  0  0  0  0  0  0  0  0  0  0
    9.5590   -0.0836    0.0000 C   0  0  0  0  0  0  0  0  0  0  0  0
    7.9340   -0.3701    0.0000 C   0  0  0  0  0  0  0  0  0  0  0  0
    7.1216   -0.5134    0.0000 C   0  0  0  0  0  0  0  0  0  0  0  0
    8.4643   -1.0021    0.0000 O   0  0  0  0  0  0  0  0  0  0  0  0
    8.1822   -1.7773    0.0000 C   0  0  0  0  0  0  0  0  0  0  0  0
    6.3431    1.5259    0.0000 C   0  0  0  0  0  0  0  0  0  0  0  0
    5.5307    1.3826    0.0000 C   0  0  0  0  0  0  0  0  0  0  0  0
    5.4966   -0.7999    0.0000 C   0  0  0  0  0  0  0  0  0  0  0  0
    6.0269   -1.4319    0.0000 C   0  0  0  0  0  0  0  0  0  0  0  0
    6.8394   -1.2886    0.0000 C   0  0  0  0  0  0  0  0  0  0  0  0
    7.3697   -1.9206    0.0000 C   0  0  0  0  0  0  0  0  0  0  0  0
    7.0875   -2.6958    0.0000 C   0  0  0  0  0  0  0  0  0  0  0  0
    6.2751   -2.8391    0.0000 C   0  0  0  0  0  0  0  0  0  0  0  0
    5.7448   -2.2071    0.0000 C   0  0  0  0  0  0  0  0  0  0  0  0
    5.9929   -3.6143    0.0000 O   0  0  0  0  0  0  0  0  0  0  0  0
    5.1804   -3.7576    0.0000 C   0  0  0  0  0  0  0  0  0  0  0  0
    7.6178   -3.3278    0.0000 O   0  0  0  0  0  0  0  0  0  0  0  0
    7.3357   -4.1031    0.0000 C   0  0  0  0  0  0  0  0  0  0  0  0
    4.7182   -0.0246    0.0000 C   0  0  0  0  0  0  0  0  0  0  0  0
    3.1051    1.8449    0.0000 O   0  0  0  0  0  0  0  0  0  0  0  0
   -2.6107    1.8449    0.0000 O   0  0  0  0  0  0  0  0  0  0  0  0
   -4.6966    1.4303    0.0000 C   0  0  0  0  0  0  0  0  0  0  0  0
   -5.9659    1.3646    0.0000 C   0  0  0  0  0  0  0  0  0  0  0  0
   -6.7904    1.3934    0.0000 C   0  0  0  0  0  0  0  0  0  0  0  0
   -7.2276    0.6937    0.0000 C   0  0  0  0  0  0  0  0  0  0  0  0
   -8.0521    0.7225    0.0000 C   0  0  0  0  0  0  0  0  0  0  0  0
   -8.4394    1.4510    0.0000 C   0  0  0  0  0  0  0  0  0  0  0  0
   -8.0022    2.1506    0.0000 C   0  0  0  0  0  0  0  0  0  0  0  0
   -7.1777    2.1218    0.0000 C   0  0  0  0  0  0  0  0  0  0  0  0
   -8.3895    2.8790    0.0000 O   0  0  0  0  0  0  0  0  0  0  0  0
   -7.9524    3.5787    0.0000 C   0  0  0  0  0  0  0  0  0  0  0  0
   -9.2639    1.4797    0.0000 O   0  0  0  0  0  0  0  0  0  0  0  0
   -9.7011    0.7801    0.0000 C   0  0  0  0  0  0  0  0  0  0  0  0
   13.3377   -0.3300    0.0000 C   0  0  0  0  0  0  0  0  0  0  0  0
   13.3377   -1.1550    0.0000 C   0  0  0  0  0  0  0  0  0  0  0  0
   12.6232   -1.5675    0.0000 C   0  0  0  0  0  0  0  0  0  0  0  0
   11.9088   -1.1550    0.0000 C   0  0  0  0  0  0  0  0  0  0  0  0
   11.9088   -0.3300    0.0000 C   0  0  0  0  0  0  0  0  0  0  0  0
   12.6232    0.0825    0.0000 C   0  0  0  0  0  0  0  0  0  0  0  0
   12.6232    0.9075    0.0000 S   0  0  0  0  0  0  0  0  0  0  0  0
   12.6232    1.7325    0.0000 O   0  0  0  0  0  0  0  0  0  0  0  0
   13.4482    0.9075    0.0000 O   0  0  0  0  0  0  0  0  0  0  0  0
   11.7982    0.9075    0.0000 O   0  5  0  0  0  0  0  0  0  0  0  0
    0.7145   -7.8156    0.0000 C   0  0  0  0  0  0  0  0  0  0  0  0
    0.7145   -8.6406    0.0000 C   0  0  0  0  0  0  0  0  0  0  0  0
   -0.0000   -9.0531    0.0000 C   0  0  0  0  0  0  0  0  0  0  0  0
   -0.7145   -8.6406    0.0000 C   0  0  0  0  0  0  0  0  0  0  0  0
   -0.7145   -7.8156    0.0000 C   0  0  0  0  0  0  0  0  0  0  0  0
   -0.0000   -7.4031    0.0000 C   0  0  0  0  0  0  0  0  0  0  0  0
    0.0000   -6.5781    0.0000 S   0  0  0  0  0  0  0  0  0  0  0  0
    0.0000   -5.7531    0.0000 O   0  0  0  0  0  0  0  0  0  0  0  0
    0.8250   -6.5781    0.0000 O   0  0  0  0  0  0  0  0  0  0  0  0
   -0.8250   -6.5781    0.0000 O   0  5  0  0  0  0  0  0  0  0  0  0
  1  2  1  0  0  0  0
  2  3  2  0  0  0  0
  3  4  1  0  0  0  0
  4  5  2  0  0  0  0
  5  6  1  0  0  0  0
  6  7  1  0  0  0  0
  5  8  1  0  0  0  0
  8  9  2  0  0  0  0
  2  9  1  0  0  0  0
  8 10  1  0  0  0  0
 10 11  1  0  0  0  0
  3 12  1  0  0  0  0
 12 13  1  0  0  0  0
 13 14  1  0  0  0  0
  1 14  1  0  0  0  0
 14 15  1  1  0  0  0
 15 16  1  0  0  0  0
 16 17  1  0  0  0  0
 17 18  1  0  0  0  0
 18 19  1  0  0  0  0
 19 20  1  0  0  0  0
 20 21  1  0  0  0  0
 21 22  1  0  0  0  0
 22 23  1  0  0  0  0
 23 24  1  0  0  0  0
 24 25  1  0  0  0  0
 25 26  1  0  0  0  0
 26 27  1  0  0  0  0
 28 27  1  1  0  0  0
 28 29  1  0  0  0  0
 29 30  1  0  0  0  0
 30 31  2  0  0  0  0
 31 32  1  0  0  0  0
 32 33  2  0  0  0  0
 33 34  1  0  0  0  0
 34 35  1  0  0  0  0
 33 36  1  0  0  0  0
 36 37  2  0  0  0  0
 30 37  1  0  0  0  0
 36 38  1  0  0  0  0
 38 39  1  0  0  0  0
 31 40  1  0  0  0  0
 40 41  1  0  0  0  0
 28 41  1  0  0  0  0
 29 42  1  1  0  0  0
 42 43  1  0  0  0  0
 43 44  2  0  0  0  0
 44 45  1  0  0  0  0
 45 46  2  0  0  0  0
 46 47  1  0  0  0  0
 47 48  2  0  0  0  0
 43 48  1  0  0  0  0
 47 49  1  0  0  0  0
 49 50  1  0  0  0  0
 46 51  1  0  0  0  0
 51 52  1  0  0  0  0
 28 53  1  6  0  0  0
 25 54  2  0  0  0  0
 17 55  2  0  0  0  0
 14 56  1  6  0  0  0
  1 57  1  1  0  0  0
 57 58  1  0  0  0  0
 58 59  2  0  0  0  0
 59 60  1  0  0  0  0
 60 61  2  0  0  0  0
 61 62  1  0  0  0  0
 62 63  2  0  0  0  0
 58 63  1  0  0  0  0
 62 64  1  0  0  0  0
 64 65  1  0  0  0  0
 61 66  1  0  0  0  0
 66 67  1  0  0  0  0
 68 69  2  0  0  0  0
 69 70  1  0  0  0  0
 70 71  2  0  0  0  0
 71 72  1  0  0  0  0
 72 73  2  0  0  0  0
 68 73  1  0  0  0  0
 73 74  1  0  0  0  0
 74 75  2  0  0  0  0
 74 76  2  0  0  0  0
 74 77  1  0  0  0  0
 78 79  2  0  0  0  0
 79 80  1  0  0  0  0
 80 81  2  0  0  0  0
 81 82  1  0  0  0  0
 82 83  2  0  0  0  0
 78 83  1  0  0  0  0
 83 84  1  0  0  0  0
 84 85  2  0  0  0  0
 84 86  2  0  0  0  0
 84 87  1  0  0  0  0
M  CHG  4  14   1  28   1  77  -1  87  -1
M  END
>  <Name>
Cisatracurium besylate

>  <CAS>
96946-42-8

>  <Formula>
C53H72N2O12.2C6H5O3S

>  <MolWt>
1243.48 

>  <Bioactivity>
Cisatracurium Besylate is a nondepolarizing skeletal muscle relaxant for intravenous administration. Cisatracurium Besylate acts on cholinergic receptors, blocking neuromuscular transmission. This action is antagonized by acetylcholinesterase inhibitors such as neostigmine. The neuromuscular block produced by cisatracurium besylate is readily antagonized by anticholinesterase agents once recovery has started. As with other nondepolarizing neuromuscular blocking agents, the more profound the neuromuscular block at the time of reversal, the longer the time required for recovery of neuromuscular function. Compared to other neuromuscular blocking agents, it is intermediate in its onset and duration of action. 

>  <Pathways>
Neuroscience;GPCR/G protein

>  <Target>
AChR antagonist;Adrenergic Receptor antagonist

>  <Receptor>
AChR;Adrenergic receptor

>  <Reference>
1. Dieye E, et al. Ann Intensive Care. 2014 Feb 11;4(1):3. 

$$$$
24280-93-1
  Mrv1561503291623562D          

 23 24  0  0  0  0            999 V2000
    2.7845    0.6979    0.0000 C   0  0  0  0  0  0  0  0  0  0  0  0
    2.0701    1.1104    0.0000 C   0  0  0  0  0  0  0  0  0  0  0  0
    1.3556    0.6979    0.0000 C   0  0  0  0  0  0  0  0  0  0  0  0
    0.6411    1.1104    0.0000 C   0  0  0  0  0  0  0  0  0  0  0  0
    0.6411    1.9354    0.0000 C   0  0  0  0  0  0  0  0  0  0  0  0
    1.3556    2.3479    0.0000 C   0  0  0  0  0  0  0  0  0  0  0  0
    2.0701    1.9354    0.0000 C   0  0  0  0  0  0  0  0  0  0  0  0
    2.7845    2.3479    0.0000 O   0  0  0  0  0  0  0  0  0  0  0  0
    3.4990    1.9354    0.0000 C   0  0  0  0  0  0  0  0  0  0  0  0
    1.3556    3.1729    0.0000 C   0  0  0  0  0  0  0  0  0  0  0  0
   -0.1435    2.1904    0.0000 C   0  0  0  0  0  0  0  0  0  0  0  0
   -0.6284    1.5229    0.0000 O   0  0  0  0  0  0  0  0  0  0  0  0
   -0.1435    0.8555    0.0000 C   0  0  0  0  0  0  0  0  0  0  0  0
   -0.3984    0.0709    0.0000 O   0  0  0  0  0  0  0  0  0  0  0  0
    1.3556   -0.1271    0.0000 O   0  0  0  0  0  0  0  0  0  0  0  0
    3.4990    1.1104    0.0000 C   0  0  0  0  0  0  0  0  0  0  0  0
    4.2135    0.6979    0.0000 C   0  0  0  0  0  0  0  0  0  0  0  0
    4.9279    1.1104    0.0000 C   0  0  0  0  0  0  0  0  0  0  0  0
    4.9279    1.9354    0.0000 C   0  0  0  0  0  0  0  0  0  0  0  0
    5.6424    2.3479    0.0000 C   0  0  0  0  0  0  0  0  0  0  0  0
    5.6424    3.1729    0.0000 O   0  0  0  0  0  0  0  0  0  0  0  0
    6.3569    1.9354    0.0000 O   0  0  0  0  0  0  0  0  0  0  0  0
    4.2135   -0.1271    0.0000 C   0  0  0  0  0  0  0  0  0  0  0  0
  1  2  1  0  0  0  0
  2  3  2  0  0  0  0
  3  4  1  0  0  0  0
  4  5  2  0  0  0  0
  5  6  1  0  0  0  0
  6  7  2  0  0  0  0
  2  7  1  0  0  0  0
  7  8  1  0  0  0  0
  8  9  1  0  0  0  0
  6 10  1  0  0  0  0
  5 11  1  0  0  0  0
 11 12  1  0  0  0  0
 12 13  1  0  0  0  0
  4 13  1  0  0  0  0
 13 14  2  0  0  0  0
  3 15  1  0  0  0  0
  1 16  1  0  0  0  0
 16 17  2  0  0  0  0
 17 18  1  0  0  0  0
 18 19  1  0  0  0  0
 19 20  1  0  0  0  0
 20 21  1  0  0  0  0
 20 22  2  0  0  0  0
 17 23  1  0  0  0  0
M  END
>  <Name>
Mycophenolic acid

>  <CAS>
24280-93-1

>  <Formula>
C17H20O6

>  <MolWt>
320.34 

>  <Bioactivity>
An antibiotic substance derived from Penicillium stoloniferum, and related species. It blocks de novo biosynthesis of purine nucleotides by inhibition of the enzyme inosine monophosphate dehydrogenase. Mycophenolic acid is important because of its selective effects on the immune system. It prevents the proliferation of T-cells, lymphocytes, and the formation of antibodies from B-cells. It also may inhibit recruitment of leukocytes to inflammatory sites. (From Gilman et al., Goodman and Gilman's The Pharmacological Basis of Therapeutics, 9th ed, p1301) 

>  <Pathways>
Metabolism

>  <Target>
Dehydrogenase inhibitor

>  <Receptor>
UGT;DH

>  <Reference>
1. Dostalek M, et al. Drug Metab Dispos. 2011 Mar;39(3):448-55.

$$$$
15622-65-8
  Mrv1561503291623562D          

 21 22  0  0  0  0            999 V2000
   -2.1455    1.1524    0.0000 C   0  0  0  0  0  0  0  0  0  0  0  0
   -1.8905    0.3678    0.0000 C   0  0  0  0  0  0  0  0  0  0  0  0
   -2.3755   -0.2996    0.0000 C   0  0  0  0  0  0  0  0  0  0  0  0
   -1.8905   -0.9670    0.0000 N   0  0  0  0  0  0  0  0  0  0  0  0
   -1.1059   -0.7121    0.0000 C   0  0  0  0  0  0  0  0  0  0  0  0
   -1.1059    0.1129    0.0000 C   0  0  0  0  0  0  0  0  0  0  0  0
   -0.3914    0.5254    0.0000 C   0  0  0  0  0  0  0  0  0  0  0  0
    0.3230    0.1129    0.0000 C   0  0  0  0  0  0  0  0  0  0  0  0
    0.3230   -0.7121    0.0000 C   0  0  0  0  0  0  0  0  0  0  0  0
   -0.3914   -1.1246    0.0000 C   0  0  0  0  0  0  0  0  0  0  0  0
    1.0375    0.5254    0.0000 C   0  0  0  0  0  0  0  0  0  0  0  0
    1.7520    0.1129    0.0000 N   0  3  0  0  0  0  0  0  0  0  0  0
    2.4664    0.5254    0.0000 C   0  0  0  0  0  0  0  0  0  0  0  0
    3.1809    0.1129    0.0000 C   0  0  0  0  0  0  0  0  0  0  0  0
    3.1809   -0.7121    0.0000 O   0  0  0  0  0  0  0  0  0  0  0  0
    2.4664   -1.1246    0.0000 C   0  0  0  0  0  0  0  0  0  0  0  0
    1.7520   -0.7121    0.0000 C   0  0  0  0  0  0  0  0  0  0  0  0
   -0.3914    1.3504    0.0000 O   0  0  0  0  0  0  0  0  0  0  0  0
   -3.2005   -0.2996    0.0000 C   0  0  0  0  0  0  0  0  0  0  0  0
   -1.5934    1.7655    0.0000 C   0  0  0  0  0  0  0  0  0  0  0  0
    5.5380    0.0000    0.0000 Cl  0  5  0  0  0  0  0  0  0  0  0  0
  1  2  1  0  0  0  0
  2  3  2  0  0  0  0
  3  4  1  0  0  0  0
  4  5  1  0  0  0  0
  5  6  2  0  0  0  0
  2  6  1  0  0  0  0
  6  7  1  0  0  0  0
  7  8  1  0  0  0  0
  8  9  1  0  0  0  0
  9 10  1  0  0  0  0
  5 10  1  0  0  0  0
  8 11  1  0  0  0  0
 11 12  1  0  0  0  0
 12 13  1  0  0  0  0
 13 14  1  0  0  0  0
 14 15  1  0  0  0  0
 15 16  1  0  0  0  0
 16 17  1  0  0  0  0
 12 17  1  0  0  0  0
  7 18  2  0  0  0  0
  3 19  1  0  0  0  0
  1 20  1  0  0  0  0
M  CHG  2  12   1  21  -1
M  END
>  <Name>
Molindone HCl

>  <CAS>
15622-65-8

>  <Formula>
C16H24N2O2·HCl

>  <MolWt>
312.84 

>  <Bioactivity>
An indole derivative effective in schizophrenia and other psychoses and possibly useful in the treatment of the aggressive type of undersocialized conduct disorder. Molindone has much lower affinity for D2 receptors than most antipsychotic agents and has a relatively low affinity for D1 receptors. It has only low to moderate affinity for cholinergic and alpha-adrenergic receptors. Some electrophysiologic data from animals indicate that molindone has certain characteristics that resemble those of CLOZAPINE. (From AMA Drug Evaluations Annual, 1994, p283) 

>  <Pathways>
Neuroscience

>  <Target>
5-HT receptor antagonist;Dopamine Receptor antagonist;AChR antagonist

>  <Receptor>
5-HT receptor;Dopamine receptor;Muscarinic AChR

>  <Reference>
1. Nguyen TV, Juorio AV. Naunyn Schmiedebergs Arch Pharmacol. 1989 Oct;340(4):366-71. 

$$$$
T1488
  Mrv1561503291623562D          

 18 16  0  0  0  0            999 V2000
    0.4125    0.0000    0.0000 H   0  3  0  0  0  0  0  0  0  0  0  0
    4.9131   -0.7477    0.0000 C   0  0  0  0  0  0  0  0  0  0  0  0
    4.1986   -1.1602    0.0000 C   0  0  0  0  0  0  0  0  0  0  0  0
    4.1986   -1.9852    0.0000 C   0  0  0  0  0  0  0  0  0  0  0  0
    4.9131   -2.3977    0.0000 N   0  0  0  0  0  0  0  0  0  0  0  0
    4.9131   -3.2227    0.0000 N   0  0  0  0  0  0  0  0  0  0  0  0
    5.6275   -3.6352    0.0000 C   0  0  0  0  0  0  0  0  0  0  0  0
    3.4841   -0.7477    0.0000 C   0  0  0  0  0  0  0  0  0  0  0  0
    3.4841    0.0773    0.0000 C   0  0  0  0  0  0  0  0  0  0  0  0
    4.1986    0.4898    0.0000 C   0  0  0  0  0  0  0  0  0  0  0  0
    4.9131    0.0773    0.0000 C   0  0  0  0  0  0  0  0  0  0  0  0
    4.1986    1.3148    0.0000 C   0  0  0  0  0  0  0  0  0  0  0  0
    4.9131    1.7273    0.0000 O   0  0  0  0  0  0  0  0  0  0  0  0
    3.4841    1.7273    0.0000 N   0  0  0  0  0  0  0  0  0  0  0  0
    3.4841    2.5523    0.0000 C   0  0  0  0  0  0  0  0  0  0  0  0
    2.7696    2.9648    0.0000 C   0  0  0  0  0  0  0  0  0  0  0  0
    4.1986    2.9648    0.0000 C   0  0  0  0  0  0  0  0  0  0  0  0
   -0.4125    0.0000    0.0000 Cl  0  5  0  0  0  0  0  0  0  0  0  0
  2  3  2  0  0  0  0
  3  4  1  0  0  0  0
  4  5  1  0  0  0  0
  5  6  1  0  0  0  0
  6  7  1  0  0  0  0
  3  8  1  0  0  0  0
  8  9  2  0  0  0  0
  9 10  1  0  0  0  0
 10 11  2  0  0  0  0
  2 11  1  0  0  0  0
 10 12  1  0  0  0  0
 12 13  2  0  0  0  0
 12 14  1  0  0  0  0
 14 15  1  0  0  0  0
 15 16  1  0  0  0  0
 15 17  1  0  0  0  0
M  CHG  2   1   1  18  -1
M  END
>  <Name>
Procarbazine HCl

>  <CAS>
366-70-1

>  <Formula>
C12H19N3O.HCl

>  <MolWt>
257.76 

>  <Bioactivity>
Procarbazine hydrochloride (Matulane) is a hydrochloride salt form of procarbazine which is a polyfunctional alkylating compound used as an antineoplastic agent. Procarbazine is a cytostatic agent, meaning it strands cells midway through cell division, but it does not actively kill them. Procarbazine interferes with cells at a number of sites to prevent DNA and protein synthesis and mitosis. Procarbazine hydrochloride (Matulane) is used in the treatment of Hodgkin’s lymphoma and other malignant lymphomas including:- lymphosarcoma- reticulosarcoma- Brill-Symmers disease. Because procarbazine hydrochloride (Matulane) works differently to other anticancer agents,Procarbazine hydrochloride (Matulane) may be useful in the treatment of cancers that have not responded to other treatments.

>  <Pathways>
DNA Damage/DNA Repair

>  <Target>
DNA Synthesis inhibitor

>  <Receptor>
DNA

>  <Reference>
1. Ogawa K, et al. Mutat Res. 2003 Aug 5;539(1-2):145-55. 

$$$$
14663-23-1
  Mrv1561503291623562D          

 24 25  0  0  0  0            999 V2000
    1.1270   -2.5070    0.0000 C   0  0  0  0  0  0  0  0  0  0  0  0
    0.3020   -2.5070    0.0000 C   0  0  0  0  0  0  0  0  0  0  0  0
   -0.1830   -3.1745    0.0000 C   0  0  0  0  0  0  0  0  0  0  0  0
    0.1526   -3.9282    0.0000 C   0  0  0  0  0  0  0  0  0  0  0  0
   -0.3323   -4.5956    0.0000 C   0  0  0  0  0  0  0  0  0  0  0  0
   -1.1528   -4.5094    0.0000 C   0  0  0  0  0  0  0  0  0  0  0  0
   -1.4884   -3.7557    0.0000 C   0  0  0  0  0  0  0  0  0  0  0  0
   -1.0034   -3.0882    0.0000 C   0  0  0  0  0  0  0  0  0  0  0  0
   -1.6377   -5.1768    0.0000 N   0  3  0  0  0  0  0  0  0  0  0  0
   -2.4582   -5.0906    0.0000 O   0  0  0  0  0  0  0  0  0  0  0  0
   -1.3022   -5.9305    0.0000 O   0  5  0  0  0  0  0  0  0  0  0  0
    0.0470   -1.7224    0.0000 O   0  0  0  0  0  0  0  0  0  0  0  0
    0.7145   -1.2375    0.0000 C   0  0  0  0  0  0  0  0  0  0  0  0
    1.3819   -1.7224    0.0000 C   0  0  0  0  0  0  0  0  0  0  0  0
    0.7145   -0.4125    0.0000 C   0  0  0  0  0  0  0  0  0  0  0  0
   -0.0000    0.0000    0.0000 N   0  0  0  0  0  0  0  0  0  0  0  0
   -0.0000    0.8250    0.0000 N   0  0  0  0  0  0  0  0  0  0  0  0
   -0.6674    1.3099    0.0000 C   0  0  0  0  0  0  0  0  0  0  0  0
   -0.4125    2.0945    0.0000 C   0  0  0  0  0  0  0  0  0  0  0  0
   -0.8974    2.7620    0.0000 O   0  0  0  0  0  0  0  0  0  0  0  0
    0.4125    2.0945    0.0000 N   0  5  0  0  0  0  0  0  0  0  0  0
    0.6674    1.3099    0.0000 C   0  0  0  0  0  0  0  0  0  0  0  0
    1.4521    1.0550    0.0000 O   0  0  0  0  0  0  0  0  0  0  0  0
   -0.9666   -6.6842    0.0000 Na  0  3  0  0  0  0  0  0  0  0  0  0
  1  2  2  0  0  0  0
  2  3  1  0  0  0  0
  3  4  2  0  0  0  0
  4  5  1  0  0  0  0
  5  6  2  0  0  0  0
  6  7  1  0  0  0  0
  7  8  2  0  0  0  0
  3  8  1  0  0  0  0
  6  9  1  0  0  0  0
  9 10  2  0  0  0  0
  9 11  1  0  0  0  0
  2 12  1  0  0  0  0
 12 13  1  0  0  0  0
 13 14  2  0  0  0  0
  1 14  1  0  0  0  0
 13 15  1  0  0  0  0
 15 16  2  0  0  0  0
 16 17  1  0  0  0  0
 17 18  1  0  0  0  0
 18 19  1  0  0  0  0
 19 20  2  0  0  0  0
 19 21  1  0  0  0  0
 21 22  1  0  0  0  0
 17 22  1  0  0  0  0
 22 23  2  0  0  0  0
M  CHG  4   9   1  11  -1  21  -1  24   1
M  END
>  <Name>
Dantrolene sodium salt

>  <CAS>
14663-23-1

>  <Formula>
C14H9N4NaO5

>  <MolWt>
336.23 

>  <Bioactivity>
Skeletal muscle relaxant that acts by interfering with excitation-contraction coupling in the muscle fiber. It is used in spasticity and other neuromuscular abnormalities. Although the mechanism of action is probably not central, dantrolene is usually grouped with the central muscle relaxants. 

>  <Pathways>
Membrane Transporter/Ion Channel

>  <Target>
Calcium Channel; Ryanodine receptor antagonist

>  <Receptor>
Calcium Channel ; Ryanodine receptor 1

>  <Reference>
1. Paul-Pletzer K, et al. J Biol Chem. 2002 Sep 20;277(38):34918-23.

$$$$
65141-46-0
  Mrv1561503291623562D          

 15 15  0  0  0  0            999 V2000
    0.7145   -2.0625    0.0000 C   0  0  0  0  0  0  0  0  0  0  0  0
   -0.0000   -2.4750    0.0000 C   0  0  0  0  0  0  0  0  0  0  0  0
   -0.7145   -2.0625    0.0000 C   0  0  0  0  0  0  0  0  0  0  0  0
   -0.7145   -1.2375    0.0000 N   0  0  0  0  0  0  0  0  0  0  0  0
   -0.0000   -0.8250    0.0000 C   0  0  0  0  0  0  0  0  0  0  0  0
    0.7145   -1.2375    0.0000 C   0  0  0  0  0  0  0  0  0  0  0  0
    1.4289   -0.8250    0.0000 C   0  0  0  0  0  0  0  0  0  0  0  0
    2.1434   -1.2375    0.0000 N   0  0  0  0  0  0  0  0  0  0  0  0
    2.8579   -0.8250    0.0000 C   0  0  0  0  0  0  0  0  0  0  0  0
    3.5724   -1.2375    0.0000 C   0  0  0  0  0  0  0  0  0  0  0  0
    4.2868   -0.8250    0.0000 O   0  0  0  0  0  0  0  0  0  0  0  0
    5.0013   -1.2375    0.0000 N   0  3  0  0  0  0  0  0  0  0  0  0
    5.7158   -0.8250    0.0000 O   0  0  0  0  0  0  0  0  0  0  0  0
    5.0013   -2.0625    0.0000 O   0  5  0  0  0  0  0  0  0  0  0  0
    1.4289   -0.0000    0.0000 O   0  0  0  0  0  0  0  0  0  0  0  0
  1  2  2  0  0  0  0
  2  3  1  0  0  0  0
  3  4  2  0  0  0  0
  4  5  1  0  0  0  0
  5  6  2  0  0  0  0
  1  6  1  0  0  0  0
  6  7  1  0  0  0  0
  7  8  1  0  0  0  0
  8  9  1  0  0  0  0
  9 10  1  0  0  0  0
 10 11  1  0  0  0  0
 11 12  1  0  0  0  0
 12 13  2  0  0  0  0
 12 14  1  0  0  0  0
  7 15  2  0  0  0  0
M  CHG  2  12   1  14  -1
M  END
>  <Name>
Nicorandil

>  <CAS>
65141-46-0

>  <Formula>
C8H9N3O4

>  <MolWt>
211.18 

>  <Bioactivity>
Nicorandil(Ikorel)is potassium channel activator. It acts by relaxing the smooth muscle of the blood vessels, especially those of the venous system. It does this through two methods. Firstly, by activating potassium channels, and secondly by donating nitric oxide to activate the enzyme guanylate cyclase. Guanylate cyclase causes activation of cGMP leading to both arterial and venous vasodilatation by de-phosphorylation of the myosin light chain.

>  <Pathways>
Membrane Transporter/Ion Channel

>  <Target>
Potassium Channel activator

>  <Receptor>
Potassium Channel

>  <Reference>
1. Kandabashi T, et al. Circulation. 2000 Mar 21;101(11):1319-23.

$$$$
1953-02-2
  Mrv1561503291623562D          

 10  9  0  0  0  0            999 V2000
    4.6184    1.8414    0.0000 C   0  0  0  0  0  0  0  0  0  0  0  0
    3.9039    1.4289    0.0000 N   0  0  0  0  0  0  0  0  0  0  0  0
    3.1895    1.8414    0.0000 C   0  0  0  0  0  0  0  0  0  0  0  0
    2.4750    1.4289    0.0000 C   0  0  0  0  0  0  0  0  0  0  0  0
    1.7605    1.8414    0.0000 C   0  0  0  0  0  0  0  0  0  0  0  0
    2.4750    0.6039    0.0000 S   0  0  0  0  0  0  0  0  0  0  0  0
    3.1895    2.6664    0.0000 O   0  0  0  0  0  0  0  0  0  0  0  0
    5.3329    1.4289    0.0000 C   0  0  0  0  0  0  0  0  0  0  0  0
    6.0474    1.8414    0.0000 O   0  0  0  0  0  0  0  0  0  0  0  0
    5.3329    0.6039    0.0000 O   0  0  0  0  0  0  0  0  0  0  0  0
  1  2  1  0  0  0  0
  2  3  1  0  0  0  0
  3  4  1  0  0  0  0
  4  5  1  0  0  0  0
  4  6  1  0  0  0  0
  3  7  2  0  0  0  0
  1  8  1  0  0  0  0
  8  9  1  0  0  0  0
  8 10  2  0  0  0  0
M  END
>  <Name>
Tiopronin

>  <CAS>
1953-02-2

>  <Formula>
C5H9NO3S

>  <MolWt>
163.19 

>  <Bioactivity>
Tiopronin (trade name Thiola) is a prescription thiol drug used to control the rate of cystine precipitation and excretion in the disease cystinuria. Due to the rarity of the disorder, tioronin falls under the classification of an orphan drug.

>  <Pathways>
Others

>  <Target>
Others

>  <Receptor>
Others

>  <Reference>
1. Zheng Z, et al. Ren Fail. 2014 Oct;36(9):1455-60. 

$$$$
T1028
  Mrv1561503291623562D          

 16 17  0  0  0  0            999 V2000
   -2.0367    4.3527    0.0000 C   0  0  0  0  0  0  0  0  0  0  0  0
   -2.0367    3.5277    0.0000 O   0  0  0  0  0  0  0  0  0  0  0  0
   -2.7512    3.1152    0.0000 C   0  0  0  0  0  0  0  0  0  0  0  0
   -2.7512    2.2902    0.0000 C   0  0  0  0  0  0  0  0  0  0  0  0
   -3.4656    1.8777    0.0000 C   0  0  0  0  0  0  0  0  0  0  0  0
   -4.1801    2.2902    0.0000 N   0  0  0  0  0  0  0  0  0  0  0  0
   -4.1801    3.1152    0.0000 C   0  0  0  0  0  0  0  0  0  0  0  0
   -3.4656    3.5277    0.0000 N   0  0  0  0  0  0  0  0  0  0  0  0
   -4.8946    3.5277    0.0000 C   0  0  0  0  0  0  0  0  0  0  0  0
   -3.4656    1.0527    0.0000 Cl  0  0  0  0  0  0  0  0  0  0  0  0
   -2.0367    1.8777    0.0000 N   0  0  0  0  0  0  0  0  0  0  0  0
   -2.0367    1.0527    0.0000 C   0  0  0  0  0  0  0  0  0  0  0  0
   -1.3693    0.5678    0.0000 N   0  0  0  0  0  0  0  0  0  0  0  0
   -1.6242   -0.2169    0.0000 C   0  0  0  0  0  0  0  0  0  0  0  0
   -2.4492   -0.2169    0.0000 C   0  0  0  0  0  0  0  0  0  0  0  0
   -2.7041    0.5678    0.0000 N   0  0  0  0  0  0  0  0  0  0  0  0
  1  2  1  0  0  0  0
  2  3  1  0  0  0  0
  3  4  2  0  0  0  0
  4  5  1  0  0  0  0
  5  6  2  0  0  0  0
  6  7  1  0  0  0  0
  7  8  2  0  0  0  0
  3  8  1  0  0  0  0
  7  9  1  0  0  0  0
  5 10  1  0  0  0  0
  4 11  1  0  0  0  0
 11 12  1  0  0  0  0
 12 13  2  0  0  0  0
 13 14  1  0  0  0  0
 14 15  1  0  0  0  0
 15 16  1  0  0  0  0
 12 16  1  0  0  0  0
M  END
>  <Name>
Moxonidine

>  <CAS>
75438-57-2

>  <Formula>
C9H12ClN5O

>  <MolWt>
241.70 

>  <Bioactivity>
Moxonidine is a selective agonist at the imidazoline receptor subtype 1, used as antihypertensive agent.

>  <Pathways>
Immunology/Inflammation

>  <Target>
Immunologic Factors

>  <Receptor>
I1-imidazoline receptor

>  <Reference>
1. Aceros H, et al. Eur J Pharmacol. 2014 Oct 5;740:168-82. 

$$$$
T1506
  Mrv1561503291623562D          

 19 21  0  0  0  0            999 V2000
   -0.6284   -0.6979    0.0000 C   0  0  0  0  0  0  0  0  0  0  0  0
   -0.1435   -1.3654    0.0000 N   0  0  0  0  0  0  0  0  0  0  0  0
    0.6411   -1.1104    0.0000 C   0  0  0  0  0  0  0  0  0  0  0  0
    0.6411   -0.2854    0.0000 C   0  0  0  0  0  0  0  0  0  0  0  0
   -0.1435   -0.0305    0.0000 N   0  0  0  0  0  0  0  0  0  0  0  0
   -0.3984    0.7541    0.0000 C   0  0  0  0  0  0  0  0  0  0  0  0
   -1.1831    1.0091    0.0000 O   0  0  0  0  0  0  0  0  0  0  0  0
   -1.1831    1.8341    0.0000 C   0  0  0  0  0  0  0  0  0  0  0  0
   -1.8505    2.3190    0.0000 C   0  0  0  0  0  0  0  0  0  0  0  0
   -1.7643    3.1395    0.0000 O   0  0  0  0  0  0  0  0  0  0  0  0
   -0.3984    2.0890    0.0000 C   0  0  0  0  0  0  0  0  0  0  0  0
    0.0865    1.4216    0.0000 C   0  0  0  0  0  0  0  0  0  0  0  0
    0.9115    1.4216    0.0000 O   0  0  0  0  0  0  0  0  0  0  0  0
   -0.1435    2.8736    0.0000 O   0  0  0  0  0  0  0  0  0  0  0  0
    1.3556    0.1271    0.0000 N   0  0  0  0  0  0  0  0  0  0  0  0
    2.0701   -0.2854    0.0000 C   0  0  0  0  0  0  0  0  0  0  0  0
    2.0701   -1.1104    0.0000 N   0  0  0  0  0  0  0  0  0  0  0  0
    1.3556   -1.5229    0.0000 C   0  0  0  0  0  0  0  0  0  0  0  0
    1.3556   -2.3479    0.0000 N   0  0  0  0  0  0  0  0  0  0  0  0
  1  2  2  0  0  0  0
  2  3  1  0  0  0  0
  3  4  2  0  0  0  0
  4  5  1  0  0  0  0
  1  5  1  0  0  0  0
  5  6  1  0  0  0  0
  6  7  1  0  0  0  0
  7  8  1  0  0  0  0
  8  9  1  0  0  0  0
  9 10  1  0  0  0  0
  8 11  1  0  0  0  0
 11 12  1  0  0  0  0
  6 12  1  0  0  0  0
 12 13  1  0  0  0  0
 11 14  1  0  0  0  0
  4 15  1  0  0  0  0
 15 16  2  0  0  0  0
 16 17  1  0  0  0  0
 17 18  2  0  0  0  0
  3 18  1  0  0  0  0
 18 19  1  0  0  0  0
M  END
>  <Name>
Vidarabine

>  <CAS>
5536-17-4

>  <Formula>
C10H13N5O4

>  <MolWt>
267.24 

>  <Bioactivity>
A nucleoside antibiotic isolated from Streptomyces antibioticus. It has some antineoplastic properties and has broad spectrum activity against DNA viruses in cell cultures and significant antiviral activity against infections caused by a variety of viruses such as the herpes viruses, the VACCINIA VIRUS and varicella zoster virus.

>  <Pathways>
DNA Damage/DNA Repair;Microbiology & Virology

>  <Target>
Antiviral;DNA/RNA Synthesis inhibitor

>  <Receptor>
DNA polymerase, ;DNA polymerase;TK

>  <Reference>
1. Suzuki M, et al. Antiviral Res. 2006 Nov; 72(2):157-61. 

$$$$
27470-51-5
  Mrv1561503291623562D          

 32 34  0  0  0  0            999 V2000
   -3.8476   -1.9558    0.0000 C   0  0  0  0  0  0  0  0  0  0  0  0
   -3.9252   -2.7771    0.0000 C   0  0  0  0  0  0  0  0  0  0  0  0
   -3.2527   -3.2550    0.0000 N   0  0  0  0  0  0  0  0  0  0  0  0
   -2.4708   -2.9919    0.0000 C   0  0  0  0  0  0  0  0  0  0  0  0
   -1.9789   -3.6542    0.0000 C   0  0  0  0  0  0  0  0  0  0  0  0
   -2.4568   -4.3267    0.0000 C   0  0  0  0  0  0  0  0  0  0  0  0
   -3.2441   -4.0800    0.0000 N   0  0  0  0  0  0  0  0  0  0  0  0
   -3.9064   -4.5719    0.0000 C   0  0  0  0  0  0  0  0  0  0  0  0
   -3.8116   -5.3914    0.0000 C   0  0  0  0  0  0  0  0  0  0  0  0
   -4.4739   -5.8833    0.0000 C   0  0  0  0  0  0  0  0  0  0  0  0
   -5.2311   -5.5557    0.0000 C   0  0  0  0  0  0  0  0  0  0  0  0
   -5.3259   -4.7361    0.0000 C   0  0  0  0  0  0  0  0  0  0  0  0
   -4.6636   -4.2442    0.0000 C   0  0  0  0  0  0  0  0  0  0  0  0
   -2.1937   -5.1086    0.0000 O   0  0  0  0  0  0  0  0  0  0  0  0
   -1.2645   -3.2417    0.0000 C   0  0  0  0  0  0  0  0  0  0  0  0
   -0.5500   -3.6542    0.0000 O   0  0  0  0  0  0  0  0  0  0  0  0
    0.1645   -3.2417    0.0000 C   0  0  0  0  0  0  0  0  0  0  0  0
    0.8789   -3.6542    0.0000 C   0  0  0  0  0  0  0  0  0  0  0  0
    1.5934   -3.2417    0.0000 C   0  0  0  0  0  0  0  0  0  0  0  0
    2.3079   -3.6542    0.0000 C   0  0  0  0  0  0  0  0  0  0  0  0
    3.0224   -3.2417    0.0000 O   0  0  0  0  0  0  0  0  0  0  0  0
    2.3079   -4.4792    0.0000 O   0  0  0  0  0  0  0  0  0  0  0  0
    0.1645   -2.4167    0.0000 O   0  0  0  0  0  0  0  0  0  0  0  0
   -1.2560   -4.0517    0.0000 C   0  0  0  0  0  0  0  0  0  0  0  0
   -1.2387   -4.8765    0.0000 C   0  0  0  0  0  0  0  0  0  0  0  0
   -0.5158   -5.2739    0.0000 C   0  0  0  0  0  0  0  0  0  0  0  0
   -0.4985   -6.0988    0.0000 C   0  0  0  0  0  0  0  0  0  0  0  0
   -2.2241   -2.2047    0.0000 O   0  0  0  0  0  0  0  0  0  0  0  0
   -4.6753   -3.1206    0.0000 C   0  0  0  0  0  0  0  0  0  0  0  0
   -5.3478   -2.6427    0.0000 C   0  0  0  0  0  0  0  0  0  0  0  0
   -5.2702   -1.8213    0.0000 C   0  0  0  0  0  0  0  0  0  0  0  0
   -4.5201   -1.4779    0.0000 C   0  0  0  0  0  0  0  0  0  0  0  0
  1  2  2  0  0  0  0
  2  3  1  0  0  0  0
  3  4  1  0  0  0  0
  4  5  1  0  0  0  0
  5  6  1  0  0  0  0
  6  7  1  0  0  0  0
  3  7  1  0  0  0  0
  7  8  1  0  0  0  0
  8  9  2  0  0  0  0
  9 10  1  0  0  0  0
 10 11  2  0  0  0  0
 11 12  1  0  0  0  0
 12 13  2  0  0  0  0
  8 13  1  0  0  0  0
  6 14  2  0  0  0  0
  5 15  1  0  0  0  0
 15 16  1  0  0  0  0
 16 17  1  0  0  0  0
 17 18  1  0  0  0  0
 18 19  1  0  0  0  0
 19 20  1  0  0  0  0
 20 21  1  0  0  0  0
 20 22  2  0  0  0  0
 17 23  2  0  0  0  0
  5 24  1  0  0  0  0
 24 25  1  0  0  0  0
 25 26  1  0  0  0  0
 26 27  1  0  0  0  0
  4 28  2  0  0  0  0
  2 29  1  0  0  0  0
 29 30  2  0  0  0  0
 30 31  1  0  0  0  0
 31 32  2  0  0  0  0
  1 32  1  0  0  0  0
M  END
>  <Name>
Suxibuzone

>  <CAS>
27470-51-5

>  <Formula>
C24H26N2O6

>  <MolWt>
438.47 

>  <Bioactivity>
Suxibuzone is a drug used for joint and muscular pain. It is a prodrug of the non steroidal anti inflammatory drug phenylbutazone, and is commonly used in horses.

>  <Pathways>
Neuroscience

>  <Target>
COX inhibitor

>  <Receptor>
Prostaglandin G/H synthase

>  <Reference>
1. Andrews FM, et al. Vet Ther. 2009 Fall;10(3):113-20.

$$$$
T0968
  Mrv1561503291623562D          

 62 68  0  0  1  0            999 V2000
   -0.9000   -0.3913    0.0000 C   0  0  2  0  0  0  0  0  0  0  0  0
   -0.3902    0.2573    0.0000 O   0  0  0  0  0  0  0  0  0  0  0  0
   -0.6969    1.0231    0.0000 C   0  0  0  0  0  0  0  0  0  0  0  0
   -1.5135    1.1404    0.0000 O   0  0  0  0  0  0  0  0  0  0  0  0
   -0.1870    1.6717    0.0000 C   0  0  0  0  0  0  0  0  0  0  0  0
   -0.1416   -0.7159    0.0000 C   0  0  0  0  0  0  0  0  0  0  0  0
   -0.0435   -1.5351    0.0000 C   0  0  2  0  0  0  0  0  0  0  0  0
    0.6388   -2.0463    0.0000 C   0  0  0  0  0  0  0  0  0  0  0  0
    0.4520   -2.8499    0.0000 O   0  0  0  0  0  0  0  0  0  0  0  0
    1.4799   -1.8880    0.0000 C   0  0  2  0  0  0  0  0  0  0  0  0
    1.9016   -2.5971    0.0000 O   0  0  0  0  0  0  0  0  0  0  0  0
    2.7265   -2.5864    0.0000 C   0  0  0  0  0  0  0  0  0  0  0  0
    3.1297   -1.8667    0.0000 O   0  0  0  0  0  0  0  0  0  0  0  0
    3.1482   -3.2955    0.0000 C   0  0  0  0  0  0  0  0  0  0  0  0
    2.0314   -1.2112    0.0000 C   0  0  0  0  0  0  0  0  0  0  0  0
    2.7581   -0.7395    0.0000 C   0  0  0  0  0  0  0  0  0  0  0  0
    2.7828    0.1055    0.0000 C   0  0  1  0  0  0  0  0  0  0  0  0
    3.4944    0.5229    0.0000 O   0  0  0  0  0  0  0  0  0  0  0  0
    3.4887    1.3479    0.0000 C   0  0  0  0  0  0  0  0  0  0  0  0
    4.2003    1.7653    0.0000 O   0  0  0  0  0  0  0  0  0  0  0  0
    2.7714    1.7554    0.0000 C   0  0  2  0  0  0  0  0  0  0  0  0
    2.0598    1.3380    0.0000 O   0  0  0  0  0  0  0  0  0  0  0  0
    2.7657    2.5804    0.0000 C   0  0  1  0  0  0  0  0  0  0  0  0
    2.0484    2.9879    0.0000 N   0  0  0  0  0  0  0  0  0  0  0  0
    2.0427    3.8129    0.0000 C   0  0  0  0  0  0  0  0  0  0  0  0
    2.7543    4.2304    0.0000 O   0  0  0  0  0  0  0  0  0  0  0  0
    1.3254    4.2205    0.0000 C   0  0  0  0  0  0  0  0  0  0  0  0
    0.6138    3.8030    0.0000 C   0  0  0  0  0  0  0  0  0  0  0  0
   -0.1035    4.2106    0.0000 C   0  0  0  0  0  0  0  0  0  0  0  0
   -0.1093    5.0356    0.0000 C   0  0  0  0  0  0  0  0  0  0  0  0
    0.6024    5.4530    0.0000 C   0  0  0  0  0  0  0  0  0  0  0  0
    1.3197    5.0454    0.0000 C   0  0  0  0  0  0  0  0  0  0  0  0
    3.4773    2.9978    0.0000 C   0  0  0  0  0  0  0  0  0  0  0  0
    3.4716    3.8228    0.0000 C   0  0  0  0  0  0  0  0  0  0  0  0
    4.1832    4.2402    0.0000 C   0  0  0  0  0  0  0  0  0  0  0  0
    4.9005    3.8327    0.0000 C   0  0  0  0  0  0  0  0  0  0  0  0
    4.9062    3.0077    0.0000 C   0  0  0  0  0  0  0  0  0  0  0  0
    4.1946    2.5903    0.0000 C   0  0  0  0  0  0  0  0  0  0  0  0
    2.0332    0.4962    0.0000 C   0  0  0  0  0  0  0  0  0  0  0  0
    1.2669    0.0921    0.0000 C   0  0  1  0  0  0  0  0  0  0  0  0
    0.9998    0.8727    0.0000 O   0  0  0  0  0  0  0  0  0  0  0  0
    0.4070   -0.0591    0.0000 C   0  0  1  0  0  0  0  0  0  0  0  0
   -0.0062    0.6550    0.0000 O   0  0  0  0  0  0  0  0  0  0  0  0
    0.4057    1.3699    0.0000 C   0  0  0  0  0  0  0  0  0  0  0  0
    1.2307    1.3706    0.0000 O   0  0  0  0  0  0  0  0  0  0  0  0
   -0.0074    2.0840    0.0000 C   0  0  0  0  0  0  0  0  0  0  0  0
   -0.8324    2.0832    0.0000 C   0  0  0  0  0  0  0  0  0  0  0  0
   -1.2456    2.7973    0.0000 C   0  0  0  0  0  0  0  0  0  0  0  0
   -0.8337    3.5122    0.0000 C   0  0  0  0  0  0  0  0  0  0  0  0
   -0.0087    3.5129    0.0000 C   0  0  0  0  0  0  0  0  0  0  0  0
    0.4044    2.7988    0.0000 C   0  0  0  0  0  0  0  0  0  0  0  0
    1.5916   -0.5933    0.0000 C   0  0  0  0  0  0  0  0  0  0  0  0
    0.7751   -0.7112    0.0000 C   0  0  0  0  0  0  0  0  0  0  0  0
    1.0902   -1.2485    0.0000 C   0  0  0  0  0  0  0  0  0  0  0  0
    3.4773   -1.1438    0.0000 C   0  0  0  0  0  0  0  0  0  0  0  0
   -0.7039   -2.0296    0.0000 C   0  0  1  0  0  0  0  0  0  0  0  0
   -0.6058   -2.8487    0.0000 O   0  0  0  0  0  0  0  0  0  0  0  0
   -1.4623   -1.7050    0.0000 C   0  0  0  0  0  0  0  0  0  0  0  0
   -1.5604   -0.8858    0.0000 C   0  0  1  0  0  0  0  0  0  0  0  0
   -2.0549   -0.2255    0.0000 O   0  0  0  0  0  0  0  0  0  0  0  0
   -1.3945    0.2691    0.0000 C   0  0  0  0  0  0  0  0  0  0  0  0
   -0.0436   -2.3601    0.0000 C   0  0  0  0  0  0  0  0  0  0  0  0
  1  2  1  6  0  0  0
  2  3  1  0  0  0  0
  3  4  2  0  0  0  0
  3  5  1  0  0  0  0
  1  6  1  0  0  0  0
  6  7  1  0  0  0  0
  7  8  1  0  0  0  0
  8  9  2  0  0  0  0
  8 10  1  0  0  0  0
 10 11  1  1  0  0  0
 11 12  1  0  0  0  0
 12 13  2  0  0  0  0
 12 14  1  0  0  0  0
 10 15  1  0  0  0  0
 15 16  2  0  0  0  0
 16 17  1  0  0  0  0
 17 18  1  6  0  0  0
 18 19  1  0  0  0  0
 19 20  2  0  0  0  0
 19 21  1  0  0  0  0
 21 22  1  6  0  0  0
 21 23  1  0  0  0  0
 23 24  1  1  0  0  0
 24 25  1  0  0  0  0
 25 26  2  0  0  0  0
 25 27  1  0  0  0  0
 27 28  2  0  0  0  0
 28 29  1  0  0  0  0
 29 30  2  0  0  0  0
 30 31  1  0  0  0  0
 31 32  2  0  0  0  0
 27 32  1  0  0  0  0
 23 33  1  0  0  0  0
 33 34  2  0  0  0  0
 34 35  1  0  0  0  0
 35 36  2  0  0  0  0
 36 37  1  0  0  0  0
 37 38  2  0  0  0  0
 33 38  1  0  0  0  0
 17 39  1  0  0  0  0
 39 40  1  0  0  0  0
 40 41  1  1  0  0  0
 40 42  1  0  0  0  0
  6 42  1  0  0  0  0
 42 43  1  6  0  0  0
 43 44  1  0  0  0  0
 44 45  2  0  0  0  0
 44 46  1  0  0  0  0
 46 47  2  0  0  0  0
 47 48  1  0  0  0  0
 48 49  2  0  0  0  0
 49 50  1  0  0  0  0
 50 51  2  0  0  0  0
 46 51  1  0  0  0  0
 40 52  1  0  0  0  0
 15 52  1  0  0  0  0
 52 53  1  0  0  0  0
 52 54  1  0  0  0  0
 16 55  1  0  0  0  0
  7 56  1  0  0  0  0
 56 57  1  1  0  0  0
 56 58  1  0  0  0  0
 58 59  1  0  0  0  0
  1 59  1  0  0  0  0
 59 60  1  1  0  0  0
 60 61  1  0  0  0  0
  1 61  1  0  0  0  0
  7 62  1  1  0  0  0
M  END
>  <Name>
Paclitaxel

>  <CAS>
33069-62-4

>  <Formula>
C47H51NO14

>  <MolWt>
853.92 

>  <Bioactivity>
Paclitaxel is a novel antineoplastic agent, which was discovered in a screen of extracts of thousands of plants and natural products for antineoplastic activity by a National Cancer Institute program. Alought it functions as a mitotic inhibitor like vinca alkaloids, paclitaxel promotes the polymerization of tubulin instead of inducing the disassembly of microtubules, which inhibits the microtubules disassembly and promotes the formation of excessively stable, dysfunctional microtubules. Paclitaxel has exhibited antitumor activity against a broad spectrum of human cancers, including ovarian, breast, head and neck, and lung cancer, in a large number of studies.

>  <Pathways>
Cell Cycle/Checkpoint

>  <Target>
Bcl-2 inhibitor; Microtubule Assosiated inhibitor

>  <Receptor>
Bcl-2;Tubulin chain,  Microtubule-associated protein

>  <Reference>
1. Wang J, et al. Anticancer Drugs. 2003, 14(1), 13-19.

$$$$
T0131
  Mrv1561503291623562D          

 45 52  0  0  1  0            999 V2000
    9.8388    3.2743    0.0000 C   0  0  2  0  0  0  0  0  0  0  0  0
   10.4997    2.6639    0.0000 C   0  0  0  0  0  0  0  0  0  0  0  0
   11.2971    2.9594    0.0000 C   0  0  0  0  0  0  0  0  0  0  0  0
   11.9844    2.4768    0.0000 C   0  0  0  0  0  0  0  0  0  0  0  0
   11.9019    1.6602    0.0000 C   0  0  0  0  0  0  0  0  0  0  0  0
   11.1550    1.3099    0.0000 C   0  0  0  0  0  0  0  0  0  0  0  0
   10.4692    1.7656    0.0000 C   0  0  0  0  0  0  0  0  0  0  0  0
   10.2732    0.9071    0.0000 O   0  0  0  0  0  0  0  0  0  0  0  0
    9.6411    0.3033    0.0000 C   0  0  0  0  0  0  0  0  0  0  0  0
    8.9661   -0.2130    0.0000 C   0  0  0  0  0  0  0  0  0  0  0  0
    8.1393    0.0695    0.0000 C   0  0  0  0  0  0  0  0  0  0  0  0
    8.1609    0.9005    0.0000 C   0  0  0  0  0  0  0  0  0  0  0  0
    7.5943    1.4547    0.0000 C   0  0  0  0  0  0  0  0  0  0  0  0
    6.8519    1.1528    0.0000 C   0  0  0  0  0  0  0  0  0  0  0  0
    6.7438    0.3490    0.0000 N   0  0  0  0  0  0  0  0  0  0  0  0
    7.2994   -0.2295    0.0000 C   0  0  2  0  0  0  0  0  0  0  0  0
    6.4035   -0.3485    0.0000 C   0  0  0  0  0  0  0  0  0  0  0  0
    5.7525    0.2885    0.0000 C   0  0  0  0  0  0  0  0  0  0  0  0
    4.9255    0.1781    0.0000 C   0  0  0  0  0  0  0  0  0  0  0  0
    4.3729    0.7923    0.0000 C   0  0  0  0  0  0  0  0  0  0  0  0
    4.6434    1.5930    0.0000 C   0  0  0  0  0  0  0  0  0  0  0  0
    5.4571    1.8369    0.0000 C   0  0  0  0  0  0  0  0  0  0  0  0
    5.9427    1.1373    0.0000 C   0  0  0  0  0  0  0  0  0  0  0  0
    5.8138    2.6547    0.0000 O   0  0  0  0  0  0  0  0  0  0  0  0
    6.3693    3.3299    0.0000 C   0  0  0  0  0  0  0  0  0  0  0  0
    6.6604    4.1220    0.0000 C   0  0  0  0  0  0  0  0  0  0  0  0
    7.4931    4.3327    0.0000 C   0  0  0  0  0  0  0  0  0  0  0  0
    8.1064    3.7470    0.0000 C   0  0  0  0  0  0  0  0  0  0  0  0
    8.9748    3.5662    0.0000 C   0  0  0  0  0  0  0  0  0  0  0  0
    7.8146    2.9706    0.0000 C   0  0  0  0  0  0  0  0  0  0  0  0
    6.9954    2.7903    0.0000 C   0  0  0  0  0  0  0  0  0  0  0  0
    4.0702    2.1864    0.0000 O   0  0  0  0  0  0  0  0  0  0  0  0
    3.2698    1.9867    0.0000 C   0  0  0  0  0  0  0  0  0  0  0  0
    5.9596    0.0928    0.0000 C   0  0  0  0  0  0  0  0  0  0  0  0
    8.7335    1.4582    0.0000 C   0  0  0  0  0  0  0  0  0  0  0  0
    9.4574    1.1194    0.0000 C   0  0  0  0  0  0  0  0  0  0  0  0
   10.1003    1.6364    0.0000 O   0  0  0  0  0  0  0  0  0  0  0  0
    9.9740    2.4517    0.0000 C   0  0  0  0  0  0  0  0  0  0  0  0
   11.2574    0.4912    0.0000 O   0  0  0  0  0  0  0  0  0  0  0  0
   12.0676    0.3357    0.0000 C   0  0  0  0  0  0  0  0  0  0  0  0
   12.4659    1.0581    0.0000 O   0  0  0  0  0  0  0  0  0  0  0  0
   11.4938    3.7709    0.0000 C   0  0  0  0  0  0  0  0  0  0  0  0
   10.8801    4.3244    0.0000 C   0  0  0  0  0  0  0  0  0  0  0  0
   10.0905    4.0748    0.0000 N   0  0  0  0  0  0  0  0  0  0  0  0
    9.5067    4.6577    0.0000 C   0  0  0  0  0  0  0  0  0  0  0  0
  1  2  1  0  0  0  0
  2  3  2  0  0  0  0
  3  4  1  0  0  0  0
  4  5  2  0  0  0  0
  5  6  1  0  0  0  0
  6  7  2  0  0  0  0
  2  7  1  0  0  0  0
  7  8  1  0  0  0  0
  8  9  1  0  0  0  0
  9 10  2  0  0  0  0
 10 11  1  0  0  0  0
 11 12  2  0  0  0  0
 12 13  1  0  0  0  0
 13 14  1  0  0  0  0
 14 15  1  0  0  0  0
 16 15  1  6  0  0  0
 11 16  1  0  0  0  0
 16 17  1  0  0  0  0
 17 18  1  0  0  0  0
 18 19  2  0  0  0  0
 19 20  1  0  0  0  0
 20 21  2  0  0  0  0
 21 22  1  0  0  0  0
 22 23  2  0  0  0  0
 18 23  1  0  0  0  0
 22 24  1  0  0  0  0
 24 25  1  0  0  0  0
 25 26  2  0  0  0  0
 26 27  1  0  0  0  0
 27 28  2  0  0  0  0
 28 29  1  0  0  0  0
  1 29  1  0  0  0  0
 28 30  1  0  0  0  0
 30 31  2  0  0  0  0
 25 31  1  0  0  0  0
 21 32  1  0  0  0  0
 32 33  1  0  0  0  0
 15 34  1  0  0  0  0
 12 35  1  0  0  0  0
 35 36  2  0  0  0  0
  9 36  1  0  0  0  0
 36 37  1  0  0  0  0
 37 38  1  0  0  0  0
  6 39  1  0  0  0  0
 39 40  1  0  0  0  0
 40 41  1  0  0  0  0
  5 41  1  0  0  0  0
  3 42  1  0  0  0  0
 42 43  1  0  0  0  0
 43 44  1  0  0  0  0
  1 44  1  6  0  0  0
 44 45  1  0  0  0  0
M  END
>  <Name>
Cepharanthine

>  <CAS>
481-49-2

>  <Formula>
C37H38N2O6

>  <MolWt>
606.73 

>  <Bioactivity>
Cepharanthine is a biscoclaurine alkaloid inhibiting tumor necrosis factor (TNF)-?-mediated NF?B stimulation, plasma membrane lipid peroxidation and platelet aggregation and suppressing cytokine production.

>  <Pathways>
Others

>  <Target>
Others

>  <Receptor>
Others

>  <Reference>
1. Huang H, et al. Inflammation. 2014 Feb;37(1):235-46. 

$$$$
16676-29-2
  Mrv1561503291623562D          

 27 30  0  0  1  0            999 V2000
    0.3152   -0.3649    0.0000 C   0  0  0  0  0  0  0  0  0  0  0  0
   -0.0222    0.2395    0.0000 C   0  0  0  0  0  0  0  0  0  0  0  0
    0.7335    0.5706    0.0000 O   0  0  0  0  0  0  0  0  0  0  0  0
   -0.2684    0.9907    0.0000 C   0  0  0  0  0  0  0  0  0  0  0  0
   -1.1094    0.7599    0.0000 N   0  0  0  0  0  0  0  0  0  0  0  0
   -1.3495   -0.0712    0.0000 C   0  0  0  0  0  0  0  0  0  0  0  0
   -0.5443   -0.5938    0.0000 C   0  0  0  0  0  0  0  0  0  0  0  0
   -1.6888    1.3472    0.0000 C   0  0  0  0  0  0  0  0  0  0  0  0
   -2.4871    1.1390    0.0000 C   0  0  0  0  0  0  0  0  0  0  0  0
   -3.0744    0.5596    0.0000 C   0  0  0  0  0  0  0  0  0  0  0  0
   -3.2826    1.3579    0.0000 C   0  0  0  0  0  0  0  0  0  0  0  0
    0.5275    1.3066    0.0000 C   0  0  0  0  0  0  0  0  0  0  0  0
    1.2295    0.7932    0.0000 C   0  0  0  0  0  0  0  0  0  0  0  0
    1.0723   -0.0441    0.0000 C   0  0  0  0  0  0  0  0  0  0  0  0
    1.6000   -0.6768    0.0000 C   0  0  0  0  0  0  0  0  0  0  0  0
    2.3990   -0.4395    0.0000 C   0  0  0  0  0  0  0  0  0  0  0  0
    2.9863   -1.0189    0.0000 O   0  0  0  0  0  0  0  0  0  0  0  0
    2.6261    0.3645    0.0000 C   0  0  0  0  0  0  0  0  0  0  0  0
    2.0448    0.9629    0.0000 C   0  0  0  0  0  0  0  0  0  0  0  0
    1.1366   -1.3895    0.0000 O   0  0  0  0  0  0  0  0  0  0  0  0
    0.3112   -1.2023    0.0000 C   0  0  0  0  0  0  0  0  0  0  0  0
   -0.5129   -1.4474    0.0000 C   0  0  0  0  0  0  0  0  0  0  0  0
   -0.6986   -2.2512    0.0000 O   0  0  0  0  0  0  0  0  0  0  0  0
   -1.1392   -0.8720    0.0000 C   0  0  0  0  0  0  0  0  0  0  0  0
   -0.8047   -0.0200    0.0000 C   0  0  0  0  0  0  0  0  0  0  0  0
    6.1685    0.0000    0.0000 H   0  3  0  0  0  0  0  0  0  0  0  0
    5.3435    0.0000    0.0000 Cl  0  5  0  0  0  0  0  0  0  0  0  0
  1  2  1  0  0  0  0
  2  3  1  0  0  0  0
  2  4  1  0  0  0  0
  4  5  1  0  0  0  0
  5  6  1  0  0  0  0
  6  7  1  0  0  0  0
  1  7  1  0  0  0  0
  5  8  1  0  0  0  0
  8  9  1  0  0  0  0
  9 10  1  0  0  0  0
 10 11  1  0  0  0  0
  9 11  1  0  0  0  0
  4 12  1  0  0  0  0
 12 13  1  0  0  0  0
 13 14  2  0  0  0  0
  1 14  1  0  0  0  0
 14 15  1  0  0  0  0
 15 16  2  0  0  0  0
 16 17  1  0  0  0  0
 16 18  1  0  0  0  0
 18 19  2  0  0  0  0
 13 19  1  0  0  0  0
 15 20  1  0  0  0  0
 20 21  1  0  0  0  0
  1 21  1  0  0  0  0
 21 22  1  0  0  0  0
 22 23  2  0  0  0  0
 22 24  1  0  0  0  0
 24 25  1  0  0  0  0
  2 25  1  0  0  0  0
M  CHG  2  26   1  27  -1
M  END
>  <Name>
Naltrexone HCl

>  <CAS>
16676-29-2

>  <Formula>
C20H23NO4.HCl

>  <MolWt>
377.86 

>  <Bioactivity>
Derivative of noroxymorphone that is the N-cyclopropylmethyl congener of NALOXONE. It is a narcotic antagonist that is effective orally, longer lasting and more potent than naloxone, and has been proposed for the treatment of heroin addiction. The FDA has approved naltrexone for the treatment of alcohol dependence.


>  <Pathways>
Neuroscience

>  <Target>
Opioid Receptor antagonist

>  <Receptor>
Opioid Receptor

>  <Reference>
1. Abdelkader H, et al. Int J Pharm. 2014 Dec 30;477(1-2):631-42.

$$$$
224785-90-4
  Mrv1561503291623562D          

 34 37  0  0  0  0            999 V2000
    4.7812    1.9354    0.0000 C   0  0  0  0  0  0  0  0  0  0  0  0
    4.0668    2.3479    0.0000 C   0  0  0  0  0  0  0  0  0  0  0  0
    3.3523    1.9354    0.0000 C   0  0  0  0  0  0  0  0  0  0  0  0
    3.3523    1.1104    0.0000 N   0  0  0  0  0  0  0  0  0  0  0  0
    2.6378    0.6979    0.0000 C   0  0  0  0  0  0  0  0  0  0  0  0
    1.9233    1.1104    0.0000 C   0  0  0  0  0  0  0  0  0  0  0  0
    1.1387    0.8555    0.0000 C   0  0  0  0  0  0  0  0  0  0  0  0
    0.8838    0.0709    0.0000 C   0  0  0  0  0  0  0  0  0  0  0  0
    0.6538    1.5229    0.0000 N   0  0  0  0  0  0  0  0  0  0  0  0
    1.1387    2.1904    0.0000 C   0  0  0  0  0  0  0  0  0  0  0  0
    1.9233    1.9354    0.0000 N   0  0  0  0  0  0  0  0  0  0  0  0
    2.6378    2.3479    0.0000 N   0  0  0  0  0  0  0  0  0  0  0  0
    0.8838    2.9750    0.0000 C   0  0  0  0  0  0  0  0  0  0  0  0
    0.0768    3.1465    0.0000 C   0  0  0  0  0  0  0  0  0  0  0  0
   -0.1781    3.9312    0.0000 C   0  0  0  0  0  0  0  0  0  0  0  0
    2.6378   -0.1271    0.0000 O   0  0  0  0  0  0  0  0  0  0  0  0
    4.0668    3.1729    0.0000 C   0  0  0  0  0  0  0  0  0  0  0  0
    4.7812    3.5854    0.0000 C   0  0  0  0  0  0  0  0  0  0  0  0
    5.4957    3.1729    0.0000 C   0  0  0  0  0  0  0  0  0  0  0  0
    5.4957    2.3479    0.0000 C   0  0  0  0  0  0  0  0  0  0  0  0
    6.2102    1.9354    0.0000 S   0  0  0  0  0  0  0  0  0  0  0  0
    6.9246    1.5229    0.0000 N   0  0  0  0  0  0  0  0  0  0  0  0
    7.6391    1.9354    0.0000 C   0  0  0  0  0  0  0  0  0  0  0  0
    8.3536    1.5229    0.0000 C   0  0  0  0  0  0  0  0  0  0  0  0
    8.3536    0.6979    0.0000 N   0  0  0  0  0  0  0  0  0  0  0  0
    9.0681    0.2854    0.0000 C   0  0  0  0  0  0  0  0  0  0  0  0
    9.7825    0.6979    0.0000 C   0  0  0  0  0  0  0  0  0  0  0  0
    7.6391    0.2854    0.0000 C   0  0  0  0  0  0  0  0  0  0  0  0
    6.9246    0.6979    0.0000 C   0  0  0  0  0  0  0  0  0  0  0  0
    5.7977    1.2210    0.0000 O   0  0  0  0  0  0  0  0  0  0  0  0
    6.6227    2.6499    0.0000 O   0  0  0  0  0  0  0  0  0  0  0  0
    3.3523    3.5854    0.0000 O   0  0  0  0  0  0  0  0  0  0  0  0
    2.6378    3.1729    0.0000 C   0  0  0  0  0  0  0  0  0  0  0  0
    1.9233    3.5854    0.0000 C   0  0  0  0  0  0  0  0  0  0  0  0
  1  2  2  0  0  0  0
  2  3  1  0  0  0  0
  3  4  2  0  0  0  0
  4  5  1  0  0  0  0
  5  6  1  0  0  0  0
  6  7  2  0  0  0  0
  7  8  1  0  0  0  0
  7  9  1  0  0  0  0
  9 10  2  0  0  0  0
 10 11  1  0  0  0  0
  6 11  1  0  0  0  0
 11 12  1  0  0  0  0
  3 12  1  0  0  0  0
 10 13  1  0  0  0  0
 13 14  1  0  0  0  0
 14 15  1  0  0  0  0
  5 16  2  0  0  0  0
  2 17  1  0  0  0  0
 17 18  2  0  0  0  0
 18 19  1  0  0  0  0
 19 20  2  0  0  0  0
  1 20  1  0  0  0  0
 20 21  1  0  0  0  0
 21 22  1  0  0  0  0
 22 23  1  0  0  0  0
 23 24  1  0  0  0  0
 24 25  1  0  0  0  0
 25 26  1  0  0  0  0
 26 27  1  0  0  0  0
 25 28  1  0  0  0  0
 28 29  1  0  0  0  0
 22 29  1  0  0  0  0
 21 30  2  0  0  0  0
 21 31  2  0  0  0  0
 17 32  1  0  0  0  0
 32 33  1  0  0  0  0
 33 34  1  0  0  0  0
M  END
>  <Name>
Vardenafil HCl Trihydrate

>  <CAS>
224785-90-4

>  <Formula>
C23H32N6O4S.HCl.3H2O

>  <MolWt>
579.11 

>  <Bioactivity>
Vardenafil (Levitra) is an oral therapy for the treatment of erectile dysfunction. It is a selective inhibitor of cyclic guanosine monophosphate (cGMP)-specific phosphodiesterase type 5 (PDE5). Penile erection is a hemodynamic process initiated by the relaxation of smooth muscle in the corpus cavernosum and its associated arterioles. During sexual stimulation, nitric oxide is released from nerve endings and endothelial cells in the corpus cavernosum. Nitric oxide activates the enzyme guanylate cyclase resulting in increased synthesis of cyclic guanosine monophosphate (cGMP) in the smooth muscle cells of the corpus cavernosum. The cGMP in turn triggers smooth muscle relaxation, allowing increased blood flow into the penis, resulting in erection. The tissue concentration of cGMP is regulated by both the rates of synthesis and degradation via phosphodiesterases (PDEs). The most abundant PDE in the human corpus cavernosum is the cGMPspecific phosphodiesterase type 5 (PDE5); therefore, the inhibition of PDE5 enhances erectile function by increasing the amount of cGMP. 

>  <Pathways>
Metabolism

>  <Target>
PDE inhibitor

>  <Receptor>
PDE1, 5

>  <Reference>
1. Saenz de Tejada I, et al. Int J Impot Res, 2001, 13(5), 282-290.

$$$$
144598-75-4
  Mrv1561503291623562D          

 31 35  0  0  0  0            999 V2000
   -4.5355    2.6711    0.0000 C   0  0  0  0  0  0  0  0  0  0  0  0
   -5.0875    2.0580    0.0000 C   0  0  0  0  0  0  0  0  0  0  0  0
   -5.0013    1.2375    0.0000 C   0  0  0  0  0  0  0  0  0  0  0  0
   -5.7550    0.9019    0.0000 N   0  0  0  0  0  0  0  0  0  0  0  0
   -6.3070    1.5150    0.0000 O   0  0  0  0  0  0  0  0  0  0  0  0
   -5.8945    2.2295    0.0000 C   0  0  0  0  0  0  0  0  0  0  0  0
   -6.1494    3.0141    0.0000 C   0  0  0  0  0  0  0  0  0  0  0  0
   -5.5974    3.6272    0.0000 C   0  0  0  0  0  0  0  0  0  0  0  0
   -4.7904    3.4557    0.0000 C   0  0  0  0  0  0  0  0  0  0  0  0
   -5.8523    4.4118    0.0000 F   0  0  0  0  0  0  0  0  0  0  0  0
   -4.2868    0.8250    0.0000 C   0  0  0  0  0  0  0  0  0  0  0  0
   -3.5724    1.2375    0.0000 C   0  0  0  0  0  0  0  0  0  0  0  0
   -2.8579    0.8250    0.0000 C   0  0  0  0  0  0  0  0  0  0  0  0
   -2.8579   -0.0000    0.0000 N   0  0  0  0  0  0  0  0  0  0  0  0
   -2.1434   -0.4125    0.0000 C   0  0  0  0  0  0  0  0  0  0  0  0
   -1.4289   -0.0000    0.0000 C   0  0  0  0  0  0  0  0  0  0  0  0
   -0.7145   -0.4125    0.0000 C   0  0  0  0  0  0  0  0  0  0  0  0
   -0.7145   -1.2375    0.0000 C   0  0  0  0  0  0  0  0  0  0  0  0
   -0.0000   -1.6500    0.0000 N   0  0  0  0  0  0  0  0  0  0  0  0
    0.7145   -1.2375    0.0000 C   0  0  0  0  0  0  0  0  0  0  0  0
    0.7145   -0.4125    0.0000 N   0  0  0  0  0  0  0  0  0  0  0  0
   -0.0000   -0.0000    0.0000 C   0  0  0  0  0  0  0  0  0  0  0  0
   -0.0000    0.8250    0.0000 O   0  0  0  0  0  0  0  0  0  0  0  0
    1.4289    0.0000    0.0000 C   0  0  0  0  0  0  0  0  0  0  0  0
    2.1434   -0.4125    0.0000 C   0  0  0  0  0  0  0  0  0  0  0  0
    2.1434   -1.2375    0.0000 C   0  0  0  0  0  0  0  0  0  0  0  0
    1.4289   -1.6500    0.0000 C   0  0  0  0  0  0  0  0  0  0  0  0
    1.4289   -2.4750    0.0000 O   0  0  0  0  0  0  0  0  0  0  0  0
   -1.4289   -1.6500    0.0000 C   0  0  0  0  0  0  0  0  0  0  0  0
   -3.5724   -0.4125    0.0000 C   0  0  0  0  0  0  0  0  0  0  0  0
   -4.2868   -0.0000    0.0000 C   0  0  0  0  0  0  0  0  0  0  0  0
  1  2  2  0  0  0  0
  2  3  1  0  0  0  0
  3  4  2  0  0  0  0
  4  5  1  0  0  0  0
  5  6  1  0  0  0  0
  2  6  1  0  0  0  0
  6  7  2  0  0  0  0
  7  8  1  0  0  0  0
  8  9  2  0  0  0  0
  1  9  1  0  0  0  0
  8 10  1  0  0  0  0
  3 11  1  0  0  0  0
 11 12  1  0  0  0  0
 12 13  1  0  0  0  0
 13 14  1  0  0  0  0
 14 15  1  0  0  0  0
 15 16  1  0  0  0  0
 16 17  1  0  0  0  0
 17 18  2  0  0  0  0
 18 19  1  0  0  0  0
 19 20  2  0  0  0  0
 20 21  1  0  0  0  0
 21 22  1  0  0  0  0
 17 22  1  0  0  0  0
 22 23  2  0  0  0  0
 21 24  1  0  0  0  0
 24 25  1  0  0  0  0
 25 26  1  0  0  0  0
 26 27  1  0  0  0  0
 20 27  1  0  0  0  0
 27 28  1  0  0  0  0
 18 29  1  0  0  0  0
 14 30  1  0  0  0  0
 30 31  1  0  0  0  0
 11 31  1  0  0  0  0
M  END
>  <Name>
Paliperidone

>  <CAS>
144598-75-4

>  <Formula>
C23H27FN4O3

>  <MolWt>
426.48 

>  <Bioactivity>
Paliperidone(Invega) is an atypical antipsychotic. Chemically, paliperidone is the primary active metabolite of the older atypical antipsychotic risperidone. It is indicated for the acute and maintenance treatment of schizophrenia. 

>  <Pathways>
Neuroscience

>  <Target>
Adrenergic Receptor antagonist;Dopamine Receptor antagonist;5-HT receptor antagonist;Histamine antagonist

>  <Receptor>
?-adrenergic receptor;Dopamine receptor;5-HT receptor;Histamine H1 receptor

>  <Reference>
1. Richelson E, Souder T. Life Sci. 2000 Nov 24;68(1):29-39.

$$$$
10418-03-8
  Mrv1561503291623562D          

 24 28  0  0  1  0            999 V2000
    4.1874    1.4143    0.0000 C   0  0  2  0  0  0  0  0  0  0  0  0
    4.7735    1.9949    0.0000 C   0  0  2  0  0  0  0  0  0  0  0  0
    5.5694    1.7776    0.0000 C   0  0  1  0  0  0  0  0  0  0  0  0
    5.7791    0.9797    0.0000 C   0  0  2  0  0  0  0  0  0  0  0  0
    6.6028    0.9326    0.0000 C   0  0  1  0  0  0  0  0  0  0  0  0
    6.4699    0.1183    0.0000 C   0  0  0  0  0  0  0  0  0  0  0  0
    7.3987    0.7152    0.0000 O   0  0  0  0  0  0  0  0  0  0  0  0
    6.9021    1.7014    0.0000 C   0  0  0  0  0  0  0  0  0  0  0  0
    6.2634    2.2236    0.0000 C   0  0  0  0  0  0  0  0  0  0  0  0
    6.0711    0.2081    0.0000 C   0  0  0  0  0  0  0  0  0  0  0  0
    5.1930    0.3991    0.0000 C   0  0  0  0  0  0  0  0  0  0  0  0
    4.3971    0.6164    0.0000 C   0  0  0  0  0  0  0  0  0  0  0  0
    4.5638    2.7928    0.0000 C   0  0  0  0  0  0  0  0  0  0  0  0
    3.7679    3.0101    0.0000 C   0  0  0  0  0  0  0  0  0  0  0  0
    3.1818    2.4295    0.0000 C   0  0  2  0  0  0  0  0  0  0  0  0
    3.3916    1.6316    0.0000 C   0  0  2  0  0  0  0  0  0  0  0  0
    2.8054    1.0510    0.0000 C   0  0  0  0  0  0  0  0  0  0  0  0
    2.0096    1.2683    0.0000 C   0  0  0  0  0  0  0  0  0  0  0  0
    1.7998    2.0662    0.0000 C   0  0  0  0  0  0  0  0  0  0  0  0
    2.3860    2.6468    0.0000 C   0  0  0  0  0  0  0  0  0  0  0  0
    0.9762    2.1133    0.0000 N   0  0  0  0  0  0  0  0  0  0  0  0
    0.6769    1.3445    0.0000 N   0  0  0  0  0  0  0  0  0  0  0  0
    1.3155    0.8223    0.0000 C   0  0  0  0  0  0  0  0  0  0  0  0
    3.6013    0.8337    0.0000 C   0  0  0  0  0  0  0  0  0  0  0  0
  1  2  1  0  0  0  0
  2  3  1  0  0  0  0
  3  4  1  0  0  0  0
  4  5  1  0  0  0  0
  5  6  1  1  0  0  0
  5  7  1  6  0  0  0
  5  8  1  0  0  0  0
  8  9  1  0  0  0  0
  3  9  1  6  0  0  0
  4 10  1  6  0  0  0
  4 11  1  0  0  0  0
 11 12  1  0  0  0  0
  1 12  1  6  0  0  0
  2 13  1  1  0  0  0
 13 14  1  0  0  0  0
 14 15  1  0  0  0  0
 15 16  1  0  0  0  0
  1 16  1  0  0  0  0
 16 17  1  0  0  0  0
 17 18  1  0  0  0  0
 18 19  2  0  0  0  0
 19 20  1  0  0  0  0
 15 20  1  6  0  0  0
 19 21  1  0  0  0  0
 21 22  1  0  0  0  0
 22 23  2  0  0  0  0
 18 23  1  0  0  0  0
 16 24  1  6  0  0  0
M  END
>  <Name>
Stanozolol

>  <CAS>
10418-03-8

>  <Formula>
C21H32N2O

>  <MolWt>
328.49 

>  <Bioactivity>
A synthetic steroid that has anabolic and androgenic properties. (From Martindale, The Extra Pharmacopoeia, 30th ed, p1194) 

>  <Pathways>
Endocrinology/ Hormones

>  <Target>
Androgen Receptor agonist

>  <Receptor>
Androgen receptor

>  <Reference>
1. Luzardo OP, et al. Endocrinology. 2000 Sep;141(9):3377-87.

$$$$
T1294
  Mrv1561503291623562D          

 26 28  0  0  0  0            999 V2000
   -0.0000    0.0000    0.0000 C   0  0  0  0  0  0  0  0  0  0  0  0
   -0.7145   -0.4125    0.0000 C   0  0  0  0  0  0  0  0  0  0  0  0
   -1.4289    0.0000    0.0000 F   0  0  0  0  0  0  0  0  0  0  0  0
   -0.7145   -1.2375    0.0000 C   0  0  0  0  0  0  0  0  0  0  0  0
   -0.0000   -1.6500    0.0000 C   0  0  0  0  0  0  0  0  0  0  0  0
    0.7145   -1.2375    0.0000 C   0  0  0  0  0  0  0  0  0  0  0  0
    0.7145   -0.4125    0.0000 C   0  0  0  0  0  0  0  0  0  0  0  0
    1.4289    0.0000    0.0000 C   0  0  0  0  0  0  0  0  0  0  0  0
    2.1434   -0.4125    0.0000 C   0  0  0  0  0  0  0  0  0  0  0  0
    2.1434   -1.2375    0.0000 C   0  0  0  0  0  0  0  0  0  0  0  0
    1.4289   -1.6500    0.0000 N   0  0  0  0  0  0  0  0  0  0  0  0
    1.4289   -2.4750    0.0000 C   0  0  0  0  0  0  0  0  0  0  0  0
    2.1434   -2.8875    0.0000 C   0  0  0  0  0  0  0  0  0  0  0  0
    2.1434   -3.7125    0.0000 F   0  0  0  0  0  0  0  0  0  0  0  0
    2.8579    0.0000    0.0000 C   0  0  0  0  0  0  0  0  0  0  0  0
    3.5724   -0.4125    0.0000 O   0  0  0  0  0  0  0  0  0  0  0  0
    2.8579    0.8250    0.0000 O   0  0  0  0  0  0  0  0  0  0  0  0
    1.4289    0.8250    0.0000 O   0  0  0  0  0  0  0  0  0  0  0  0
   -0.0000   -2.4750    0.0000 F   0  0  0  0  0  0  0  0  0  0  0  0
   -1.4289   -1.6500    0.0000 N   0  0  0  0  0  0  0  0  0  0  0  0
   -1.4289   -2.4750    0.0000 C   0  0  0  0  0  0  0  0  0  0  0  0
   -2.1434   -2.8875    0.0000 C   0  0  0  0  0  0  0  0  0  0  0  0
   -2.8579   -2.4750    0.0000 N   0  0  0  0  0  0  0  0  0  0  0  0
   -3.5724   -2.8875    0.0000 C   0  0  0  0  0  0  0  0  0  0  0  0
   -2.8579   -1.6500    0.0000 C   0  0  0  0  0  0  0  0  0  0  0  0
   -2.1434   -1.2375    0.0000 C   0  0  0  0  0  0  0  0  0  0  0  0
  1  2  2  0  0  0  0
  2  3  1  0  0  0  0
  2  4  1  0  0  0  0
  4  5  2  0  0  0  0
  5  6  1  0  0  0  0
  6  7  2  0  0  0  0
  1  7  1  0  0  0  0
  7  8  1  0  0  0  0
  8  9  1  0  0  0  0
  9 10  2  0  0  0  0
 10 11  1  0  0  0  0
  6 11  1  0  0  0  0
 11 12  1  0  0  0  0
 12 13  1  0  0  0  0
 13 14  1  0  0  0  0
  9 15  1  0  0  0  0
 15 16  1  0  0  0  0
 15 17  2  0  0  0  0
  8 18  2  0  0  0  0
  5 19  1  0  0  0  0
  4 20  1  0  0  0  0
 20 21  1  0  0  0  0
 21 22  1  0  0  0  0
 22 23  1  0  0  0  0
 23 24  1  0  0  0  0
 23 25  1  0  0  0  0
 25 26  1  0  0  0  0
 20 26  1  0  0  0  0
M  END
>  <Name>
Fleroxacin

>  <CAS>
79660-72-3

>  <Formula>
C17H18F3N3O3

>  <MolWt>
369.34 

>  <Bioactivity>
A broad-spectrum antimicrobial fluoroquinolone. The drug strongly inhibits the DNA-supercoiling activity of DNA GYRASE. 

>  <Pathways>
DNA Damage/DNA Repair

>  <Target>
DNA gyrase inhibitor;Topoisomerase inhibitor

>  <Receptor>
DNA gyrase;Topoisomerase II, IV

>  <Reference>
1. Hussy P, et al. Antimicrob Agents Chemother. 1986 Jun;29(6):1073-8. 

$$$$
202409-33-4
  Mrv1561503291623562D          

 24 26  0  0  0  0            999 V2000
    1.4289   -1.6500    0.0000 C   0  0  0  0  0  0  0  0  0  0  0  0
    1.4289   -2.4750    0.0000 C   0  0  0  0  0  0  0  0  0  0  0  0
    0.7145   -2.8875    0.0000 C   0  0  0  0  0  0  0  0  0  0  0  0
   -0.0000   -2.4750    0.0000 N   0  0  0  0  0  0  0  0  0  0  0  0
   -0.0000   -1.6500    0.0000 C   0  0  0  0  0  0  0  0  0  0  0  0
    0.7145   -1.2375    0.0000 C   0  0  0  0  0  0  0  0  0  0  0  0
    0.7145   -0.4125    0.0000 Cl  0  0  0  0  0  0  0  0  0  0  0  0
    0.7145   -3.7125    0.0000 C   0  0  0  0  0  0  0  0  0  0  0  0
    1.4289   -4.1250    0.0000 C   0  0  0  0  0  0  0  0  0  0  0  0
    1.4289   -4.9500    0.0000 N   0  0  0  0  0  0  0  0  0  0  0  0
    0.7145   -5.3625    0.0000 C   0  0  0  0  0  0  0  0  0  0  0  0
   -0.0000   -4.9500    0.0000 C   0  0  0  0  0  0  0  0  0  0  0  0
   -0.0000   -4.1250    0.0000 C   0  0  0  0  0  0  0  0  0  0  0  0
    0.7145   -6.1875    0.0000 C   0  0  0  0  0  0  0  0  0  0  0  0
    2.1434   -2.8875    0.0000 C   0  0  0  0  0  0  0  0  0  0  0  0
    2.8579   -2.4750    0.0000 C   0  0  0  0  0  0  0  0  0  0  0  0
    3.5724   -2.8875    0.0000 C   0  0  0  0  0  0  0  0  0  0  0  0
    3.5724   -3.7125    0.0000 C   0  0  0  0  0  0  0  0  0  0  0  0
    4.2868   -4.1250    0.0000 S   0  0  0  0  0  0  0  0  0  0  0  0
    5.0013   -4.5375    0.0000 C   0  0  0  0  0  0  0  0  0  0  0  0
    3.8743   -4.8395    0.0000 O   0  0  0  0  0  0  0  0  0  0  0  0
    4.6993   -3.4105    0.0000 O   0  0  0  0  0  0  0  0  0  0  0  0
    2.8579   -4.1250    0.0000 C   0  0  0  0  0  0  0  0  0  0  0  0
    2.1434   -3.7125    0.0000 C   0  0  0  0  0  0  0  0  0  0  0  0
  1  2  2  0  0  0  0
  2  3  1  0  0  0  0
  3  4  2  0  0  0  0
  4  5  1  0  0  0  0
  5  6  2  0  0  0  0
  1  6  1  0  0  0  0
  6  7  1  0  0  0  0
  3  8  1  0  0  0  0
  8  9  2  0  0  0  0
  9 10  1  0  0  0  0
 10 11  2  0  0  0  0
 11 12  1  0  0  0  0
 12 13  2  0  0  0  0
  8 13  1  0  0  0  0
 11 14  1  0  0  0  0
  2 15  1  0  0  0  0
 15 16  2  0  0  0  0
 16 17  1  0  0  0  0
 17 18  2  0  0  0  0
 18 19  1  0  0  0  0
 19 20  1  0  0  0  0
 19 21  2  0  0  0  0
 19 22  2  0  0  0  0
 18 23  1  0  0  0  0
 23 24  2  0  0  0  0
 15 24  1  0  0  0  0
M  END
>  <Name>
Etoricoxib

>  <CAS>
202409-33-4

>  <Formula>
C18H15ClN2O2S

>  <MolWt>
358.84 

>  <Bioactivity>
In summary, Etoricoxib represents a novel agent that selectively inhibits COX-2 with 106-fold selectivity in human whole blood assays in vitro and with the lowest potency of inhibition of COX-1 compared with other reported selective agents. Single preoperative oral dose (120 mg) of Etoricoxib, given one hour before surgery, has significantly reduced the post operative pain at rest and movement and improved sleep in patients undergoing single level diskectomy without any side effects and with good patient satisfaction.

>  <Pathways>
Neuroscience

>  <Target>
COX inhibitor

>  <Receptor>
Prostaglandin G/H synthase

>  <Reference>
1. Capone ML, et al. Prostaglandins Other Lipid Mediat. 2007 Jan;82(1-4):85-94.

$$$$
T2590
  Mrv1561503291623562D          

 27 29  0  0  0  0            999 V2000
   -2.1434   -2.0625    0.0000 C   0  0  0  0  0  0  0  0  0  0  0  0
   -2.1434   -2.8875    0.0000 S   0  0  0  0  0  0  0  0  0  0  0  0
   -2.9684   -2.8875    0.0000 O   0  0  0  0  0  0  0  0  0  0  0  0
   -1.3184   -2.8875    0.0000 O   0  0  0  0  0  0  0  0  0  0  0  0
   -2.1434   -3.7125    0.0000 C   0  0  0  0  0  0  0  0  0  0  0  0
   -1.4289   -4.1250    0.0000 C   0  0  0  0  0  0  0  0  0  0  0  0
   -1.4289   -4.9500    0.0000 C   0  0  0  0  0  0  0  0  0  0  0  0
   -2.1434   -5.3625    0.0000 C   0  0  0  0  0  0  0  0  0  0  0  0
   -2.8579   -4.9500    0.0000 C   0  0  0  0  0  0  0  0  0  0  0  0
   -2.8579   -4.1250    0.0000 C   0  0  0  0  0  0  0  0  0  0  0  0
   -2.1434   -6.1875    0.0000 C   0  0  0  0  0  0  0  0  0  0  0  0
   -2.8579   -6.6000    0.0000 O   0  0  0  0  0  0  0  0  0  0  0  0
   -1.4289   -6.6000    0.0000 N   0  0  0  0  0  0  0  0  0  0  0  0
   -1.4289   -7.4250    0.0000 C   0  0  0  0  0  0  0  0  0  0  0  0
   -0.7145   -7.8375    0.0000 C   0  0  0  0  0  0  0  0  0  0  0  0
   -0.7145   -8.6625    0.0000 C   0  0  0  0  0  0  0  0  0  0  0  0
   -1.4289   -9.0750    0.0000 C   0  0  0  0  0  0  0  0  0  0  0  0
   -2.1434   -8.6625    0.0000 C   0  0  0  0  0  0  0  0  0  0  0  0
   -2.1434   -7.8375    0.0000 C   0  0  0  0  0  0  0  0  0  0  0  0
   -1.4289   -9.9000    0.0000 Cl  0  0  0  0  0  0  0  0  0  0  0  0
   -0.0000   -9.0750    0.0000 C   0  0  0  0  0  0  0  0  0  0  0  0
    0.7145   -8.6625    0.0000 C   0  0  0  0  0  0  0  0  0  0  0  0
    1.4289   -9.0750    0.0000 C   0  0  0  0  0  0  0  0  0  0  0  0
    1.4289   -9.9000    0.0000 C   0  0  0  0  0  0  0  0  0  0  0  0
    0.7145  -10.3125    0.0000 C   0  0  0  0  0  0  0  0  0  0  0  0
   -0.0000   -9.9000    0.0000 N   0  0  0  0  0  0  0  0  0  0  0  0
   -0.7145   -5.3625    0.0000 Cl  0  0  0  0  0  0  0  0  0  0  0  0
  1  2  1  0  0  0  0
  2  3  2  0  0  0  0
  2  4  2  0  0  0  0
  2  5  1  0  0  0  0
  5  6  2  0  0  0  0
  6  7  1  0  0  0  0
  7  8  2  0  0  0  0
  8  9  1  0  0  0  0
  9 10  2  0  0  0  0
  5 10  1  0  0  0  0
  8 11  1  0  0  0  0
 11 12  2  0  0  0  0
 11 13  1  0  0  0  0
 13 14  1  0  0  0  0
 14 15  2  0  0  0  0
 15 16  1  0  0  0  0
 16 17  2  0  0  0  0
 17 18  1  0  0  0  0
 18 19  2  0  0  0  0
 14 19  1  0  0  0  0
 17 20  1  0  0  0  0
 16 21  1  0  0  0  0
 21 22  2  0  0  0  0
 22 23  1  0  0  0  0
 23 24  2  0  0  0  0
 24 25  1  0  0  0  0
 25 26  2  0  0  0  0
 21 26  1  0  0  0  0
  7 27  1  0  0  0  0
M  END
>  <Name>
Vismodegib (GDC-0449)

>  <CAS>
879085-55-9

>  <Formula>
C19H14Cl2N2O3S

>  <MolWt>
421.30 

>  <Bioactivity>
Vismodegib(GDC-0449) is a more potent novel and specific synthetic oral hedgehog pathway inhibitor with an IC50 of 3 nM; also inhibits P-gp with IC50 of 3.0 ?M.

>  <Pathways>
Stem Cell

>  <Target>
Hedgehog/Smoothened Receptor antagonist

>  <Receptor>
Hedgehog/Smoothened Receptor

>  <Reference>
1. Tian F, et al. Anticancer Res. 2012, 32(1), 89-94.

$$$$
T1130
  Mrv1561503291623562D          

136143  0  0  1  0            999 V2000
   53.9148  -12.8223    0.0000 C   0  0  2  0  0  0  0  0  0  0  0  0
   53.2366  -12.3525    0.0000 N   0  0  0  0  0  0  0  0  0  0  0  0
   52.4907  -12.7049    0.0000 C   0  0  0  0  0  0  0  0  0  0  0  0
   52.4229  -13.5271    0.0000 O   0  0  0  0  0  0  0  0  0  0  0  0
   51.8125  -12.2350    0.0000 C   0  0  1  0  0  0  0  0  0  0  0  0
   51.0666  -12.5874    0.0000 N   0  0  0  0  0  0  0  0  0  0  0  0
   50.3884  -12.1176    0.0000 C   0  0  0  0  0  0  0  0  0  0  0  0
   50.4562  -11.2954    0.0000 O   0  0  0  0  0  0  0  0  0  0  0  0
   49.6425  -12.4700    0.0000 C   0  0  1  0  0  0  0  0  0  0  0  0
   48.9643  -12.0001    0.0000 N   0  0  0  0  0  0  0  0  0  0  0  0
   48.2183  -12.3525    0.0000 C   0  0  0  0  0  0  0  0  0  0  0  0
   48.1505  -13.1747    0.0000 O   0  0  0  0  0  0  0  0  0  0  0  0
   47.5402  -11.8827    0.0000 C   0  0  1  0  0  0  0  0  0  0  0  0
   46.7942  -12.2350    0.0000 N   0  0  0  0  0  0  0  0  0  0  0  0
   46.1161  -11.7652    0.0000 C   0  0  0  0  0  0  0  0  0  0  0  0
   46.1839  -10.9430    0.0000 O   0  0  0  0  0  0  0  0  0  0  0  0
   45.3701  -12.1176    0.0000 C   0  0  2  0  0  0  0  0  0  0  0  0
   44.6920  -11.6477    0.0000 N   0  0  0  0  0  0  0  0  0  0  0  0
   43.9460  -12.0001    0.0000 C   0  0  0  0  0  0  0  0  0  0  0  0
   43.8782  -12.8223    0.0000 O   0  0  0  0  0  0  0  0  0  0  0  0
   43.2679  -11.5303    0.0000 C   0  0  1  0  0  0  0  0  0  0  0  0
   42.5219  -11.8827    0.0000 N   0  0  0  0  0  0  0  0  0  0  0  0
   41.8438  -11.4128    0.0000 C   0  0  0  0  0  0  0  0  0  0  0  0
   41.9116  -10.5906    0.0000 O   0  0  0  0  0  0  0  0  0  0  0  0
   41.0978  -11.7652    0.0000 C   0  0  2  0  0  0  0  0  0  0  0  0
   40.4197  -11.2954    0.0000 N   0  0  0  0  0  0  0  0  0  0  0  0
   39.6737  -11.6477    0.0000 C   0  0  0  0  0  0  0  0  0  0  0  0
   39.6059  -12.4700    0.0000 O   0  0  0  0  0  0  0  0  0  0  0  0
   38.9956  -11.1779    0.0000 C   0  0  1  0  0  0  0  0  0  0  0  0
   38.2496  -11.5303    0.0000 N   0  0  0  0  0  0  0  0  0  0  0  0
   37.5715  -11.0605    0.0000 C   0  0  0  0  0  0  0  0  0  0  0  0
   37.6393  -10.2382    0.0000 O   0  0  0  0  0  0  0  0  0  0  0  0
   36.8255  -11.4128    0.0000 C   0  0  0  0  0  0  0  0  0  0  0  0
   36.1474  -10.9430    0.0000 N   0  0  0  0  0  0  0  0  0  0  0  0
   35.4014  -11.2954    0.0000 C   0  0  0  0  0  0  0  0  0  0  0  0
   35.3336  -12.1176    0.0000 O   0  0  0  0  0  0  0  0  0  0  0  0
   34.7232  -10.8255    0.0000 C   0  0  1  0  0  0  0  0  0  0  0  0
   33.9773  -11.1779    0.0000 N   0  0  0  0  0  0  0  0  0  0  0  0
   33.2991  -10.7081    0.0000 C   0  0  0  0  0  0  0  0  0  0  0  0
   32.5532  -11.0605    0.0000 O   0  0  0  0  0  0  0  0  0  0  0  0
   34.7911  -10.0033    0.0000 C   0  0  0  0  0  0  0  0  0  0  0  0
   34.1129   -9.5335    0.0000 C   0  0  0  0  0  0  0  0  0  0  0  0
   35.5370   -9.6510    0.0000 C   0  0  0  0  0  0  0  0  0  0  0  0
   39.0634  -10.3557    0.0000 C   0  0  0  0  0  0  0  0  0  0  0  0
   41.0300  -12.5874    0.0000 C   0  0  0  0  0  0  0  0  0  0  0  0
   41.7081  -13.0572    0.0000 C   0  0  0  0  0  0  0  0  0  0  0  0
   42.4541  -12.7049    0.0000 C   0  0  0  0  0  0  0  0  0  0  0  0
   41.6403  -13.8795    0.0000 C   0  0  0  0  0  0  0  0  0  0  0  0
   43.3357  -10.7081    0.0000 C   0  0  0  0  0  0  0  0  0  0  0  0
   45.3023  -12.9398    0.0000 C   0  0  0  0  0  0  0  0  0  0  0  0
   44.5564  -13.2922    0.0000 C   0  0  0  0  0  0  0  0  0  0  0  0
   45.9805  -13.4096    0.0000 C   0  0  0  0  0  0  0  0  0  0  0  0
   47.6080  -11.0605    0.0000 C   0  0  0  0  0  0  0  0  0  0  0  0
   46.9299  -10.5906    0.0000 C   0  0  0  0  0  0  0  0  0  0  0  0
   48.3540  -10.7081    0.0000 C   0  0  0  0  0  0  0  0  0  0  0  0
   49.5746  -13.2922    0.0000 C   0  0  0  0  0  0  0  0  0  0  0  0
   48.8287  -13.6445    0.0000 C   0  0  0  0  0  0  0  0  0  0  0  0
   50.2528  -13.7620    0.0000 C   0  0  0  0  0  0  0  0  0  0  0  0
   51.8803  -11.4128    0.0000 C   0  0  0  0  0  0  0  0  0  0  0  0
   52.6263  -11.0605    0.0000 C   0  0  0  0  0  0  0  0  0  0  0  0
   53.3498  -11.4568    0.0000 C   0  0  0  0  0  0  0  0  0  0  0  0
   53.9504  -10.8912    0.0000 N   0  0  0  0  0  0  0  0  0  0  0  0
   53.5980  -10.1452    0.0000 C   0  0  0  0  0  0  0  0  0  0  0  0
   53.9166   -9.3842    0.0000 C   0  0  0  0  0  0  0  0  0  0  0  0
   53.4168   -8.7278    0.0000 C   0  0  0  0  0  0  0  0  0  0  0  0
   52.5985   -8.8324    0.0000 C   0  0  0  0  0  0  0  0  0  0  0  0
   52.2799   -9.5934    0.0000 C   0  0  0  0  0  0  0  0  0  0  0  0
   52.7797  -10.2498    0.0000 C   0  0  0  0  0  0  0  0  0  0  0  0
   53.8470  -13.6445    0.0000 C   0  0  0  0  0  0  0  0  0  0  0  0
   54.5251  -14.1144    0.0000 C   0  0  0  0  0  0  0  0  0  0  0  0
   55.2711  -13.7620    0.0000 C   0  0  0  0  0  0  0  0  0  0  0  0
   54.4573  -14.9366    0.0000 C   0  0  0  0  0  0  0  0  0  0  0  0
   54.6607  -12.4700    0.0000 C   0  0  0  0  0  0  0  0  0  0  0  0
   54.7285  -11.6477    0.0000 O   0  0  0  0  0  0  0  0  0  0  0  0
   55.3389  -12.9398    0.0000 N   0  0  0  0  0  0  0  0  0  0  0  0
   56.0848  -12.5874    0.0000 C   0  0  1  0  0  0  0  0  0  0  0  0
   56.1527  -11.7652    0.0000 C   0  0  0  0  0  0  0  0  0  0  0  0
   56.8986  -11.4128    0.0000 C   0  0  0  0  0  0  0  0  0  0  0  0
   57.6222  -11.8092    0.0000 C   0  0  0  0  0  0  0  0  0  0  0  0
   58.2227  -11.2436    0.0000 N   0  0  0  0  0  0  0  0  0  0  0  0
   57.8703  -10.4976    0.0000 C   0  0  0  0  0  0  0  0  0  0  0  0
   58.1889   -9.7366    0.0000 C   0  0  0  0  0  0  0  0  0  0  0  0
   57.6891   -9.0802    0.0000 C   0  0  0  0  0  0  0  0  0  0  0  0
   56.8708   -9.1848    0.0000 C   0  0  0  0  0  0  0  0  0  0  0  0
   56.5522   -9.9458    0.0000 C   0  0  0  0  0  0  0  0  0  0  0  0
   57.0520  -10.6022    0.0000 C   0  0  0  0  0  0  0  0  0  0  0  0
   56.7630  -13.0572    0.0000 C   0  0  0  0  0  0  0  0  0  0  0  0
   56.6952  -13.8795    0.0000 O   0  0  0  0  0  0  0  0  0  0  0  0
   57.5089  -12.7049    0.0000 N   0  0  0  0  0  0  0  0  0  0  0  0
   58.1871  -13.1747    0.0000 C   0  0  2  0  0  0  0  0  0  0  0  0
   58.1193  -13.9969    0.0000 C   0  0  0  0  0  0  0  0  0  0  0  0
   58.7974  -14.4667    0.0000 C   0  0  0  0  0  0  0  0  0  0  0  0
   59.5434  -14.1144    0.0000 C   0  0  0  0  0  0  0  0  0  0  0  0
   58.7296  -15.2890    0.0000 C   0  0  0  0  0  0  0  0  0  0  0  0
   58.9331  -12.8223    0.0000 C   0  0  0  0  0  0  0  0  0  0  0  0
   59.0009  -12.0001    0.0000 O   0  0  0  0  0  0  0  0  0  0  0  0
   59.6112  -13.2922    0.0000 N   0  0  0  0  0  0  0  0  0  0  0  0
   60.3572  -12.9398    0.0000 C   0  0  1  0  0  0  0  0  0  0  0  0
   60.4250  -12.1176    0.0000 C   0  0  0  0  0  0  0  0  0  0  0  0
   61.1709  -11.7652    0.0000 C   0  0  0  0  0  0  0  0  0  0  0  0
   61.8945  -12.1616    0.0000 C   0  0  0  0  0  0  0  0  0  0  0  0
   62.4950  -11.5959    0.0000 N   0  0  0  0  0  0  0  0  0  0  0  0
   62.1427  -10.8500    0.0000 C   0  0  0  0  0  0  0  0  0  0  0  0
   62.4612  -10.0890    0.0000 C   0  0  0  0  0  0  0  0  0  0  0  0
   61.9615   -9.4326    0.0000 C   0  0  0  0  0  0  0  0  0  0  0  0
   61.1431   -9.5372    0.0000 C   0  0  0  0  0  0  0  0  0  0  0  0
   60.8246  -10.2982    0.0000 C   0  0  0  0  0  0  0  0  0  0  0  0
   61.3243  -10.9546    0.0000 C   0  0  0  0  0  0  0  0  0  0  0  0
   61.0353  -13.4096    0.0000 C   0  0  0  0  0  0  0  0  0  0  0  0
   60.9675  -14.2318    0.0000 O   0  0  0  0  0  0  0  0  0  0  0  0
   61.7813  -13.0572    0.0000 N   0  0  0  0  0  0  0  0  0  0  0  0
   62.4594  -13.5271    0.0000 C   0  0  2  0  0  0  0  0  0  0  0  0
   62.3916  -14.3493    0.0000 C   0  0  0  0  0  0  0  0  0  0  0  0
   63.0697  -14.8191    0.0000 C   0  0  0  0  0  0  0  0  0  0  0  0
   63.8157  -14.4667    0.0000 C   0  0  0  0  0  0  0  0  0  0  0  0
   63.0019  -15.6413    0.0000 C   0  0  0  0  0  0  0  0  0  0  0  0
   63.2054  -13.1747    0.0000 C   0  0  0  0  0  0  0  0  0  0  0  0
   63.2732  -12.3525    0.0000 O   0  0  0  0  0  0  0  0  0  0  0  0
   63.8835  -13.6445    0.0000 N   0  0  0  0  0  0  0  0  0  0  0  0
   64.6295  -13.2922    0.0000 C   0  0  1  0  0  0  0  0  0  0  0  0
   65.3076  -13.7620    0.0000 C   0  0  0  0  0  0  0  0  0  0  0  0
   66.0536  -13.4096    0.0000 C   0  0  0  0  0  0  0  0  0  0  0  0
   66.2070  -12.5990    0.0000 C   0  0  0  0  0  0  0  0  0  0  0  0
   67.0253  -12.4944    0.0000 N   0  0  0  0  0  0  0  0  0  0  0  0
   67.3777  -13.2404    0.0000 C   0  0  0  0  0  0  0  0  0  0  0  0
   68.1678  -13.4776    0.0000 C   0  0  0  0  0  0  0  0  0  0  0  0
   68.3574  -14.2806    0.0000 C   0  0  0  0  0  0  0  0  0  0  0  0
   67.7568  -14.8462    0.0000 C   0  0  0  0  0  0  0  0  0  0  0  0
   66.9667  -14.6089    0.0000 C   0  0  0  0  0  0  0  0  0  0  0  0
   66.7771  -13.8060    0.0000 C   0  0  0  0  0  0  0  0  0  0  0  0
   64.6973  -12.4700    0.0000 C   0  0  0  0  0  0  0  0  0  0  0  0
   65.4433  -12.1176    0.0000 O   0  0  0  0  0  0  0  0  0  0  0  0
   64.0191  -12.0001    0.0000 N   0  0  0  0  0  0  0  0  0  0  0  0
   64.0870  -11.1779    0.0000 C   0  0  0  0  0  0  0  0  0  0  0  0
   63.4088  -10.7081    0.0000 C   0  0  0  0  0  0  0  0  0  0  0  0
   63.4766   -9.8859    0.0000 O   0  0  0  0  0  0  0  0  0  0  0  0
  1  2  1  1  0  0  0
  2  3  1  0  0  0  0
  3  4  2  0  0  0  0
  3  5  1  0  0  0  0
  5  6  1  1  0  0  0
  6  7  1  0  0  0  0
  7  8  2  0  0  0  0
  7  9  1  0  0  0  0
  9 10  1  6  0  0  0
 10 11  1  0  0  0  0
 11 12  2  0  0  0  0
 11 13  1  0  0  0  0
 13 14  1  1  0  0  0
 14 15  1  0  0  0  0
 15 16  2  0  0  0  0
 15 17  1  0  0  0  0
 17 18  1  1  0  0  0
 18 19  1  0  0  0  0
 19 20  2  0  0  0  0
 19 21  1  0  0  0  0
 21 22  1  0  0  0  0
 22 23  1  0  0  0  0
 23 24  2  0  0  0  0
 23 25  1  0  0  0  0
 25 26  1  1  0  0  0
 26 27  1  0  0  0  0
 27 28  2  0  0  0  0
 27 29  1  0  0  0  0
 29 30  1  0  0  0  0
 30 31  1  0  0  0  0
 31 32  2  0  0  0  0
 31 33  1  0  0  0  0
 33 34  1  0  0  0  0
 34 35  1  0  0  0  0
 35 36  2  0  0  0  0
 35 37  1  0  0  0  0
 37 38  1  1  0  0  0
 38 39  1  0  0  0  0
 39 40  2  0  0  0  0
 37 41  1  0  0  0  0
 41 42  1  0  0  0  0
 41 43  1  0  0  0  0
 29 44  1  1  0  0  0
 25 45  1  0  0  0  0
 45 46  1  0  0  0  0
 46 47  1  0  0  0  0
 46 48  1  0  0  0  0
 21 49  1  1  0  0  0
 17 50  1  0  0  0  0
 50 51  1  0  0  0  0
 50 52  1  0  0  0  0
 13 53  1  0  0  0  0
 53 54  1  0  0  0  0
 53 55  1  0  0  0  0
  9 56  1  0  0  0  0
 56 57  1  0  0  0  0
 56 58  1  0  0  0  0
  5 59  1  0  0  0  0
 59 60  1  0  0  0  0
 60 61  2  0  0  0  0
 61 62  1  0  0  0  0
 62 63  1  0  0  0  0
 63 64  2  0  0  0  0
 64 65  1  0  0  0  0
 65 66  2  0  0  0  0
 66 67  1  0  0  0  0
 67 68  2  0  0  0  0
 60 68  1  0  0  0  0
 63 68  1  0  0  0  0
  1 69  1  0  0  0  0
 69 70  1  0  0  0  0
 70 71  1  0  0  0  0
 70 72  1  0  0  0  0
  1 73  1  0  0  0  0
 73 74  2  0  0  0  0
 73 75  1  0  0  0  0
 76 75  1  1  0  0  0
 76 77  1  0  0  0  0
 77 78  1  0  0  0  0
 78 79  2  0  0  0  0
 79 80  1  0  0  0  0
 80 81  1  0  0  0  0
 81 82  2  0  0  0  0
 82 83  1  0  0  0  0
 83 84  2  0  0  0  0
 84 85  1  0  0  0  0
 85 86  2  0  0  0  0
 78 86  1  0  0  0  0
 81 86  1  0  0  0  0
 76 87  1  0  0  0  0
 87 88  2  0  0  0  0
 87 89  1  0  0  0  0
 90 89  1  1  0  0  0
 90 91  1  0  0  0  0
 91 92  1  0  0  0  0
 92 93  1  0  0  0  0
 92 94  1  0  0  0  0
 90 95  1  0  0  0  0
 95 96  2  0  0  0  0
 95 97  1  0  0  0  0
 98 97  1  1  0  0  0
 98 99  1  0  0  0  0
 99100  1  0  0  0  0
100101  2  0  0  0  0
101102  1  0  0  0  0
102103  1  0  0  0  0
103104  2  0  0  0  0
104105  1  0  0  0  0
105106  2  0  0  0  0
106107  1  0  0  0  0
107108  2  0  0  0  0
100108  1  0  0  0  0
103108  1  0  0  0  0
 98109  1  0  0  0  0
109110  2  0  0  0  0
109111  1  0  0  0  0
112111  1  1  0  0  0
112113  1  0  0  0  0
113114  1  0  0  0  0
114115  1  0  0  0  0
114116  1  0  0  0  0
112117  1  0  0  0  0
117118  2  0  0  0  0
117119  1  0  0  0  0
120119  1  6  0  0  0
120121  1  0  0  0  0
121122  1  0  0  0  0
122123  2  0  0  0  0
123124  1  0  0  0  0
124125  1  0  0  0  0
125126  2  0  0  0  0
126127  1  0  0  0  0
127128  2  0  0  0  0
128129  1  0  0  0  0
129130  2  0  0  0  0
122130  1  0  0  0  0
125130  1  0  0  0  0
120131  1  0  0  0  0
131132  2  0  0  0  0
131133  1  0  0  0  0
133134  1  0  0  0  0
134135  1  0  0  0  0
135136  1  0  0  0  0
M  END
>  <Name>
Gramicidin

>  <CAS>
1405-97-6

>  <Formula>
C99H140N20O17

>  <MolWt>
1882.34 

>  <Bioactivity>
A group of peptide antibiotics from BACILLUS brevis. Gramicidin C or S is a cyclic, ten-amino acid polypeptide and gramicidins A, B, D are linear. Gramicidin is one of the two principal components of TYROTHRICIN.


>  <Pathways>
Immunology/Inflammation;Microbiology & Virology

>  <Target>
Antibacterial; MRP inhibitor

>  <Receptor>
MRP1

>  <Reference>
1. Nagy H, et al. Biochem Biophys Res Commun. 2004 Mar 19;315(4):942-9.

$$$$
78281-72-8
  Mrv1561503291623562D          

 19 20  0  0  0  0            999 V2000
    2.8579   -1.6500    0.0000 C   0  0  0  0  0  0  0  0  0  0  0  0
    2.8579   -2.4750    0.0000 C   0  0  0  0  0  0  0  0  0  0  0  0
    2.1434   -2.8875    0.0000 C   0  0  0  0  0  0  0  0  0  0  0  0
    1.4289   -2.4750    0.0000 C   0  0  0  0  0  0  0  0  0  0  0  0
    1.4289   -1.6500    0.0000 C   0  0  0  0  0  0  0  0  0  0  0  0
    2.1434   -1.2375    0.0000 C   0  0  0  0  0  0  0  0  0  0  0  0
    2.1434   -0.4125    0.0000 C   0  0  0  0  0  0  0  0  0  0  0  0
    1.4289    0.0000    0.0000 O   0  0  0  0  0  0  0  0  0  0  0  0
    2.8579   -0.0000    0.0000 C   0  0  0  0  0  0  0  0  0  0  0  0
    2.8579    0.8250    0.0000 C   0  0  0  0  0  0  0  0  0  0  0  0
    3.5724    1.2375    0.0000 C   0  0  0  0  0  0  0  0  0  0  0  0
    4.2868    0.8250    0.0000 C   0  0  0  0  0  0  0  0  0  0  0  0
    4.2868   -0.0000    0.0000 C   0  0  0  0  0  0  0  0  0  0  0  0
    3.5724   -0.4125    0.0000 C   0  0  0  0  0  0  0  0  0  0  0  0
    0.7145   -1.2375    0.0000 N   0  0  0  0  0  0  0  0  0  0  0  0
    0.7145   -2.8875    0.0000 C   0  0  0  0  0  0  0  0  0  0  0  0
   -0.0000   -2.4750    0.0000 C   0  0  0  0  0  0  0  0  0  0  0  0
   -0.7145   -2.8875    0.0000 O   0  0  0  0  0  0  0  0  0  0  0  0
   -0.0000   -1.6500    0.0000 N   0  0  0  0  0  0  0  0  0  0  0  0
  1  2  2  0  0  0  0
  2  3  1  0  0  0  0
  3  4  2  0  0  0  0
  4  5  1  0  0  0  0
  5  6  2  0  0  0  0
  1  6  1  0  0  0  0
  6  7  1  0  0  0  0
  7  8  2  0  0  0  0
  7  9  1  0  0  0  0
  9 10  2  0  0  0  0
 10 11  1  0  0  0  0
 11 12  2  0  0  0  0
 12 13  1  0  0  0  0
 13 14  2  0  0  0  0
  9 14  1  0  0  0  0
  5 15  1  0  0  0  0
  4 16  1  0  0  0  0
 16 17  1  0  0  0  0
 17 18  2  0  0  0  0
 17 19  1  0  0  0  0
M  END
>  <Name>
Nepafenac

>  <CAS>
78281-72-8

>  <Formula>
C15H14N2O2

>  <MolWt>
254.28 

>  <Bioactivity>
Nepafenac is a non-steroidal anti-inflammatory prodrug (NSAID) usually sold as a prescription eye drop. It is used to treat pain and inflammation associated with cataract surgery.  

>  <Pathways>
Neuroscience

>  <Target>
COX

>  <Receptor>
Prostaglandin G/H synthase 1/2

>  <Reference>
1. Gamache DA, et al. Inflammation. 2000 Aug;24(4):357-70.

$$$$
162401-32-3
  Mrv1561503291623562D          

 26 28  0  0  0  0            999 V2000
    5.0013   -1.9349    0.0000 C   0  0  0  0  0  0  0  0  0  0  0  0
    5.0013   -1.1099    0.0000 C   0  0  0  0  0  0  0  0  0  0  0  0
    4.2868   -0.6974    0.0000 O   0  0  0  0  0  0  0  0  0  0  0  0
    3.5724   -1.1099    0.0000 C   0  0  0  0  0  0  0  0  0  0  0  0
    3.5724   -1.9349    0.0000 C   0  0  0  0  0  0  0  0  0  0  0  0
    3.9849   -2.6493    0.0000 C   0  0  0  0  0  0  0  0  0  0  0  0
    3.1599   -2.6493    0.0000 C   0  0  0  0  0  0  0  0  0  0  0  0
    5.7158   -0.6974    0.0000 C   0  0  0  0  0  0  0  0  0  0  0  0
    6.4302   -1.1099    0.0000 C   0  0  0  0  0  0  0  0  0  0  0  0
    6.4302   -1.9349    0.0000 C   0  0  0  0  0  0  0  0  0  0  0  0
    5.7158   -2.3474    0.0000 C   0  0  0  0  0  0  0  0  0  0  0  0
    5.7158   -3.1724    0.0000 C   0  0  0  0  0  0  0  0  0  0  0  0
    6.4302   -3.5849    0.0000 N   0  0  0  0  0  0  0  0  0  0  0  0
    6.4302   -4.4099    0.0000 C   0  0  0  0  0  0  0  0  0  0  0  0
    7.1447   -4.8224    0.0000 C   0  0  0  0  0  0  0  0  0  0  0  0
    7.8592   -4.4099    0.0000 Cl  0  0  0  0  0  0  0  0  0  0  0  0
    7.1447   -5.6474    0.0000 C   0  0  0  0  0  0  0  0  0  0  0  0
    6.4302   -6.0599    0.0000 N   0  0  0  0  0  0  0  0  0  0  0  0
    5.7158   -5.6474    0.0000 C   0  0  0  0  0  0  0  0  0  0  0  0
    5.7158   -4.8224    0.0000 C   0  0  0  0  0  0  0  0  0  0  0  0
    5.0013   -4.4099    0.0000 Cl  0  0  0  0  0  0  0  0  0  0  0  0
    5.0013   -3.5849    0.0000 O   0  0  0  0  0  0  0  0  0  0  0  0
    5.7158    0.1276    0.0000 O   0  0  0  0  0  0  0  0  0  0  0  0
    5.0013    0.5401    0.0000 C   0  0  0  0  0  0  0  0  0  0  0  0
    4.2868    0.1276    0.0000 F   0  0  0  0  0  0  0  0  0  0  0  0
    5.0013    1.3651    0.0000 F   0  0  0  0  0  0  0  0  0  0  0  0
  1  2  2  0  0  0  0
  2  3  1  0  0  0  0
  3  4  1  0  0  0  0
  4  5  1  0  0  0  0
  5  6  1  0  0  0  0
  6  7  1  0  0  0  0
  5  7  1  0  0  0  0
  2  8  1  0  0  0  0
  8  9  2  0  0  0  0
  9 10  1  0  0  0  0
 10 11  2  0  0  0  0
  1 11  1  0  0  0  0
 11 12  1  0  0  0  0
 12 13  1  0  0  0  0
 13 14  1  0  0  0  0
 14 15  2  0  0  0  0
 15 16  1  0  0  0  0
 15 17  1  0  0  0  0
 17 18  2  0  0  0  0
 18 19  1  0  0  0  0
 19 20  2  0  0  0  0
 14 20  1  0  0  0  0
 20 21  1  0  0  0  0
 12 22  2  0  0  0  0
  8 23  1  0  0  0  0
 23 24  1  0  0  0  0
 24 25  1  0  0  0  0
 24 26  1  0  0  0  0
M  END
>  <Name>
Roflumilast

>  <CAS>
162401-32-3

>  <Formula>
C17H14Cl2F2N2O3

>  <MolWt>
403.21 

>  <Bioactivity>
Roflumilast is a phosphodiesterase-4 (PDE-4) inhibitor. Due to its selective inhibition of the PDE4 isoenzyme in lung cells, roflumilast is indicated for the management of chronic obstrtuctive pulmonary disease (COPD) exacerbations. Treatment with Roflumilast is associated with an increase in psychiatric adverse reactions, including suicide and suicidal attempts.


>  <Pathways>
Metabolism

>  <Target>
PDE inhibitor

>  <Receptor>
PDE4

>  <Reference>
1. Barone FC, et al. Pharmacology. 2007 Aug 28;81(1):11-17.

$$$$
87-33-2
  Mrv1561503291623562D          

 16 17  0  0  1  0            999 V2000
    0.7846   -1.0799    0.0000 C   0  0  1  0  0  0  0  0  0  0  0  0
    0.0000   -1.3349    0.0000 O   0  0  0  0  0  0  0  0  0  0  0  0
   -0.4849   -0.6674    0.0000 C   0  0  0  0  0  0  0  0  0  0  0  0
   -0.0000    0.0000    0.0000 C   0  0  1  0  0  0  0  0  0  0  0  0
   -0.2549    0.7846    0.0000 O   0  0  0  0  0  0  0  0  0  0  0  0
   -1.0619    0.9561    0.0000 N   0  3  0  0  0  0  0  0  0  0  0  0
   -1.3168    1.7408    0.0000 O   0  5  0  0  0  0  0  0  0  0  0  0
   -1.6139    0.3431    0.0000 O   0  0  0  0  0  0  0  0  0  0  0  0
    0.7846   -0.2549    0.0000 C   0  0  1  0  0  0  0  0  0  0  0  0
    1.5692   -0.0000    0.0000 O   0  0  0  0  0  0  0  0  0  0  0  0
    2.0542   -0.6674    0.0000 C   0  0  0  0  0  0  0  0  0  0  0  0
    1.5692   -1.3349    0.0000 C   0  0  2  0  0  0  0  0  0  0  0  0
    1.8242   -2.1195    0.0000 O   0  0  0  0  0  0  0  0  0  0  0  0
    1.2721   -2.7326    0.0000 N   0  3  0  0  0  0  0  0  0  0  0  0
    1.5271   -3.5172    0.0000 O   0  5  0  0  0  0  0  0  0  0  0  0
    0.4652   -2.5611    0.0000 O   0  0  0  0  0  0  0  0  0  0  0  0
  1  2  1  1  0  0  0
  2  3  1  0  0  0  0
  3  4  1  0  0  0  0
  4  5  1  1  0  0  0
  5  6  1  0  0  0  0
  6  7  1  0  0  0  0
  6  8  2  0  0  0  0
  4  9  1  0  0  0  0
  1  9  1  0  0  0  0
  9 10  1  1  0  0  0
 10 11  1  0  0  0  0
 11 12  1  0  0  0  0
  1 12  1  0  0  0  0
 12 13  1  6  0  0  0
 13 14  1  0  0  0  0
 14 15  1  0  0  0  0
 14 16  2  0  0  0  0
M  CHG  4   6   1   7  -1  14   1  15  -1
M  END
>  <Name>
Isosorbide dinitrate

>  <CAS>
87-33-2

>  <Formula>
C6H8N2O8

>  <MolWt>
236.14 

>  <Bioactivity>
A vasodilator used in the treatment of ANGINA PECTORIS. Its actions are similar to NITROGLYCERIN but with a slower onset of action.  

>  <Pathways>
Membrane Transporter/Ion Channel

>  <Target>
Others

>  <Receptor>
NPR1

>  <Reference>
1. Villarroya M, et al. Cardiovasc Drug Rev. 2005 Summer;23(2):149-60.

$$$$
T0124
  Mrv1561503291623562D          

 55 61  0  0  1  0            999 V2000
    4.9779    1.7065    0.0000 C   0  0  2  0  0  0  0  0  0  0  0  0
    4.3202    2.2045    0.0000 C   0  0  1  0  0  0  0  0  0  0  0  0
    4.4226    3.0231    0.0000 C   0  0  0  0  0  0  0  0  0  0  0  0
    5.1827    3.3438    0.0000 C   0  0  0  0  0  0  0  0  0  0  0  0
    5.8405    2.8458    0.0000 C   0  0  0  0  0  0  0  0  0  0  0  0
    5.7381    2.0272    0.0000 C   0  0  1  0  0  0  0  0  0  0  0  0
    6.3958    1.5292    0.0000 C   0  0  0  0  0  0  0  0  0  0  0  0
    7.1559    1.8498    0.0000 O   0  0  0  0  0  0  0  0  0  0  0  0
    7.8137    1.3518    0.0000 C   0  0  2  0  0  0  0  0  0  0  0  0
    8.5738    1.6724    0.0000 C   0  0  0  0  0  0  0  0  0  0  0  0
    9.2316    1.1744    0.0000 C   0  0  2  0  0  0  0  0  0  0  0  0
    9.3340    1.9930    0.0000 O   0  0  0  0  0  0  0  0  0  0  0  0
   10.0941    2.3137    0.0000 C   0  0  2  0  0  0  0  0  0  0  0  0
   10.1965    3.1323    0.0000 C   0  0  0  0  0  0  0  0  0  0  0  0
    9.5388    3.6303    0.0000 C   0  0  0  0  0  0  0  0  0  0  0  0
    9.6412    4.4489    0.0000 C   0  0  0  0  0  0  0  0  0  0  0  0
   10.4013    4.7695    0.0000 C   0  0  0  0  0  0  0  0  0  0  0  0
   11.0591    4.2715    0.0000 C   0  0  0  0  0  0  0  0  0  0  0  0
   10.9567    3.4529    0.0000 C   0  0  0  0  0  0  0  0  0  0  0  0
   10.7519    1.8157    0.0000 C   0  0  1  0  0  0  0  0  0  0  0  0
   11.5120    2.1363    0.0000 C   0  0  0  0  0  0  0  0  0  0  0  0
   10.6495    0.9970    0.0000 C   0  0  0  0  0  0  0  0  0  0  0  0
    9.8893    0.6764    0.0000 C   0  0  0  0  0  0  0  0  0  0  0  0
    9.1292    0.3558    0.0000 O   0  0  0  0  0  0  0  0  0  0  0  0
    8.3690    0.0352    0.0000 C   0  0  1  0  0  0  0  0  0  0  0  0
    7.7113    0.5332    0.0000 C   0  0  0  0  0  0  0  0  0  0  0  0
    8.2666   -0.7835    0.0000 C   0  0  0  0  0  0  0  0  0  0  0  0
    7.5065   -1.1041    0.0000 C   0  0  0  0  0  0  0  0  0  0  0  0
    7.4041   -1.9227    0.0000 C   0  0  0  0  0  0  0  0  0  0  0  0
    6.6439   -2.2433    0.0000 C   0  0  2  0  0  0  0  0  0  0  0  0
    5.9862   -1.7453    0.0000 C   0  0  2  0  0  0  0  0  0  0  0  0
    6.0886   -0.9267    0.0000 C   0  0  0  0  0  0  0  0  0  0  0  0
    5.4308   -0.4287    0.0000 C   0  0  0  0  0  0  0  0  0  0  0  0
    5.5332    0.3899    0.0000 C   0  0  0  0  0  0  0  0  0  0  0  0
    4.8755    0.8879    0.0000 C   0  0  0  0  0  0  0  0  0  0  0  0
    3.8827    0.9434    0.0000 C   0  0  0  0  0  0  0  0  0  0  0  0
    3.6433    1.7329    0.0000 O   0  0  0  0  0  0  0  0  0  0  0  0
    5.2260   -2.0659    0.0000 C   0  0  0  0  0  0  0  0  0  0  0  0
    6.5415   -3.0619    0.0000 O   0  0  0  0  0  0  0  0  0  0  0  0
    5.7814   -3.3826    0.0000 C   0  0  1  0  0  0  0  0  0  0  0  0
    5.6790   -4.2012    0.0000 C   0  0  0  0  0  0  0  0  0  0  0  0
    4.9188   -4.5218    0.0000 C   0  0  1  0  0  0  0  0  0  0  0  0
    4.2611   -4.0238    0.0000 C   0  0  1  0  0  0  0  0  0  0  0  0
    3.5009   -4.3444    0.0000 O   0  0  0  0  0  0  0  0  0  0  0  0
    4.3635   -3.2052    0.0000 C   0  0  1  0  0  0  0  0  0  0  0  0
    5.1236   -2.8846    0.0000 O   0  0  0  0  0  0  0  0  0  0  0  0
    3.7057   -2.7072    0.0000 C   0  0  0  0  0  0  0  0  0  0  0  0
    4.8164   -5.3404    0.0000 O   0  0  0  0  0  0  0  0  0  0  0  0
    4.0563   -5.6611    0.0000 C   0  0  0  0  0  0  0  0  0  0  0  0
    8.0618   -2.4207    0.0000 C   0  0  0  0  0  0  0  0  0  0  0  0
    6.2934    0.7105    0.0000 O   0  0  0  0  0  0  0  0  0  0  0  0
    5.2851    4.1624    0.0000 C   0  0  0  0  0  0  0  0  0  0  0  0
    3.7648    3.5211    0.0000 N   0  0  0  0  0  0  0  0  0  0  0  0
    3.0047    3.2005    0.0000 O   0  0  0  0  0  0  0  0  0  0  0  0
    5.6356    1.2085    0.0000 O   0  0  0  0  0  0  0  0  0  0  0  0
  1  2  1  0  0  0  0
  2  3  1  0  0  0  0
  3  4  1  0  0  0  0
  4  5  2  0  0  0  0
  6  5  1  1  0  0  0
  1  6  1  0  0  0  0
  6  7  1  0  0  0  0
  7  8  1  0  0  0  0
  8  9  1  0  0  0  0
  9 10  1  0  0  0  0
 10 11  1  0  0  0  0
 11 12  1  1  0  0  0
 12 13  1  0  0  0  0
 13 14  1  6  0  0  0
 14 15  1  0  0  0  0
 15 16  1  0  0  0  0
 16 17  1  0  0  0  0
 17 18  1  0  0  0  0
 18 19  1  0  0  0  0
 14 19  1  0  0  0  0
 13 20  1  0  0  0  0
 20 21  1  1  0  0  0
 20 22  1  0  0  0  0
 22 23  1  0  0  0  0
 11 23  1  0  0  0  0
 11 24  1  0  0  0  0
 24 25  1  0  0  0  0
 25 26  1  6  0  0  0
  9 26  1  6  0  0  0
 25 27  1  0  0  0  0
 27 28  1  0  0  0  0
 28 29  2  0  0  0  0
 29 30  1  0  0  0  0
 30 31  1  0  0  0  0
 31 32  1  0  0  0  0
 32 33  2  0  0  0  0
 33 34  1  0  0  0  0
 34 35  2  0  0  0  0
  1 35  1  0  0  0  0
 35 36  1  0  0  0  0
 36 37  1  0  0  0  0
  2 37  1  6  0  0  0
 31 38  1  1  0  0  0
 30 39  1  1  0  0  0
 40 39  1  1  0  0  0
 40 41  1  0  0  0  0
 41 42  1  0  0  0  0
 42 43  1  0  0  0  0
 43 44  1  1  0  0  0
 43 45  1  0  0  0  0
 45 46  1  0  0  0  0
 40 46  1  0  0  0  0
 45 47  1  6  0  0  0
 42 48  1  6  0  0  0
 48 49  1  0  0  0  0
 29 50  1  0  0  0  0
  7 51  2  0  0  0  0
  4 52  1  0  0  0  0
  3 53  2  0  0  0  0
 53 54  1  0  0  0  0
  1 55  1  1  0  0  0
M  END
>  <Name>
SelaMeerin

>  <CAS>
165108-07-6

>  <Formula>
C43H63NO11

>  <MolWt>
769.96 

>  <Bioactivity>
Selamectin is a topical parasiticide and antihelminthic used on dogs and cats, distributed by Zoetis. Selamectin disables parasites by activating glutamate-gated chloride channels at muscle synapses.

>  <Pathways>
Microbiology & Virology

>  <Target>
Antiparasitic

>  <Receptor>
Glutamate-gated chloride channels

>  <Reference>
1. Dryden MW, et al. Parasit Vectors. 2013 Mar 25;6:80. 

$$$$
745-65-3
  Mrv1561503291623562D          

 25 25  0  0  1  0            999 V2000
    0.3251   -0.6271    0.0000 C   0  0  2  0  0  0  0  0  0  0  0  0
   -0.4286   -0.9626    0.0000 C   0  0  2  0  0  0  0  0  0  0  0  0
   -0.9806   -0.3495    0.0000 C   0  0  2  0  0  0  0  0  0  0  0  0
   -1.8011   -0.4358    0.0000 O   0  0  0  0  0  0  0  0  0  0  0  0
   -0.5681    0.3649    0.0000 C   0  0  0  0  0  0  0  0  0  0  0  0
    0.2389    0.1934    0.0000 C   0  0  0  0  0  0  0  0  0  0  0  0
    0.8519    0.7455    0.0000 O   0  0  0  0  0  0  0  0  0  0  0  0
   -0.6001   -1.7696    0.0000 C   0  0  0  0  0  0  0  0  0  0  0  0
   -1.3847   -2.0245    0.0000 C   0  0  0  0  0  0  0  0  0  0  0  0
   -1.5563   -2.8315    0.0000 C   0  0  2  0  0  0  0  0  0  0  0  0
   -2.3409   -3.0864    0.0000 C   0  0  0  0  0  0  0  0  0  0  0  0
   -2.5124   -3.8934    0.0000 C   0  0  0  0  0  0  0  0  0  0  0  0
   -3.2970   -4.1484    0.0000 C   0  0  0  0  0  0  0  0  0  0  0  0
   -3.4686   -4.9553    0.0000 C   0  0  0  0  0  0  0  0  0  0  0  0
   -4.2532   -5.2103    0.0000 C   0  0  0  0  0  0  0  0  0  0  0  0
   -0.9432   -3.3835    0.0000 O   0  0  0  0  0  0  0  0  0  0  0  0
    1.0396   -1.0396    0.0000 C   0  0  0  0  0  0  0  0  0  0  0  0
    1.7540   -0.6271    0.0000 C   0  0  0  0  0  0  0  0  0  0  0  0
    2.4685   -1.0396    0.0000 C   0  0  0  0  0  0  0  0  0  0  0  0
    3.1830   -0.6271    0.0000 C   0  0  0  0  0  0  0  0  0  0  0  0
    3.8974   -1.0396    0.0000 C   0  0  0  0  0  0  0  0  0  0  0  0
    4.6119   -0.6271    0.0000 C   0  0  0  0  0  0  0  0  0  0  0  0
    5.3264   -1.0396    0.0000 C   0  0  0  0  0  0  0  0  0  0  0  0
    6.0409   -0.6271    0.0000 O   0  0  0  0  0  0  0  0  0  0  0  0
    5.3264   -1.8646    0.0000 O   0  0  0  0  0  0  0  0  0  0  0  0
  1  2  1  0  0  0  0
  2  3  1  0  0  0  0
  3  4  1  6  0  0  0
  3  5  1  0  0  0  0
  5  6  1  0  0  0  0
  1  6  1  0  0  0  0
  6  7  2  0  0  0  0
  2  8  1  1  0  0  0
  8  9  2  0  0  0  0
  9 10  1  0  0  0  0
 10 11  1  0  0  0  0
 11 12  1  0  0  0  0
 12 13  1  0  0  0  0
 13 14  1  0  0  0  0
 14 15  1  0  0  0  0
 10 16  1  1  0  0  0
  1 17  1  6  0  0  0
 17 18  1  0  0  0  0
 18 19  1  0  0  0  0
 19 20  1  0  0  0  0
 20 21  1  0  0  0  0
 21 22  1  0  0  0  0
 22 23  1  0  0  0  0
 23 24  1  0  0  0  0
 23 25  2  0  0  0  0
M  END
>  <Name>
Alprostadil

>  <CAS>
745-65-3

>  <Formula>
C20H34O5

>  <MolWt>
354.48 

>  <Bioactivity>
Alprostadil is a Prostaglandin Analog and Prostaglandin E1 Agonist. The mechanism of action of alprostadil is as a Prostaglandin Receptor Agonist. The physiologic effect of alprostadil is by means of Genitourinary Arterial Vasodilation and Venous Vasodilation. The chemical classification of alprostadil is Prostaglandins.

>  <Pathways>
GPCR/G Protein

>  <Target>
Prostaglandin Receptor

>  <Receptor>
Prostaglandin Receptor

>  <Reference>
1. Dijkstra BG, et al. Invest Ophthalmol Vis Sci. 1999 Oct; 40(11):2622-6. 

$$$$
T1270
  Mrv1561503291623562D          

 65 72  0  0  1  0            999 V2000
   -0.9581    1.0113    0.0000 C   0  0  2  0  0  0  0  0  0  0  0  0
   -0.8282    1.8260    0.0000 C   0  0  1  0  0  0  0  0  0  0  0  0
   -0.0133    1.9542    0.0000 N   0  0  0  0  0  0  0  0  0  0  0  0
    0.3605    1.2187    0.0000 C   0  0  0  0  0  0  0  0  0  0  0  0
   -0.2235    0.6360    0.0000 C   0  0  0  0  0  0  0  0  0  0  0  0
   -0.0108   -0.1611    0.0000 C   0  0  0  0  0  0  0  0  0  0  0  0
    0.7859   -0.3755    0.0000 C   0  0  0  0  0  0  0  0  0  0  0  0
    1.3699    0.2073    0.0000 C   0  0  0  0  0  0  0  0  0  0  0  0
    1.1572    1.0044    0.0000 C   0  0  0  0  0  0  0  0  0  0  0  0
    2.1665   -0.0071    0.0000 O   0  0  0  0  0  0  0  0  0  0  0  0
    2.7505    0.5756    0.0000 C   0  0  0  0  0  0  0  0  0  0  0  0
    0.9986   -1.1726    0.0000 C   0  0  2  0  0  0  0  0  0  0  0  0
    0.7445   -1.9751    0.0000 C   0  0  0  0  0  0  0  0  0  0  0  0
    1.0742   -2.7313    0.0000 C   0  0  0  0  0  0  0  0  0  0  0  0
    0.4569   -3.2786    0.0000 C   0  0  0  0  0  0  0  0  0  0  0  0
   -0.2544   -2.8606    0.0000 C   0  0  0  0  0  0  0  0  0  0  0  0
   -0.0766   -2.0550    0.0000 N   0  0  0  0  0  0  0  0  0  0  0  0
   -0.9720   -3.2676    0.0000 C   0  0  0  0  0  0  0  0  0  0  0  0
   -0.9783   -4.0926    0.0000 C   0  0  0  0  0  0  0  0  0  0  0  0
   -0.2670   -4.5106    0.0000 C   0  0  0  0  0  0  0  0  0  0  0  0
    0.4506   -4.1036    0.0000 C   0  0  0  0  0  0  0  0  0  0  0  0
    1.8366   -3.0945    0.0000 C   0  0  0  0  0  0  0  0  0  0  0  0
    2.6632   -2.8586    0.0000 C   0  0  0  0  0  0  0  0  0  0  0  0
    3.2108   -2.1824    0.0000 N   0  0  0  0  0  0  0  0  0  0  0  0
    2.8393   -1.5136    0.0000 C   0  0  0  0  0  0  0  0  0  0  0  0
    2.6020   -0.7863    0.0000 C   0  0  1  0  0  0  0  0  0  0  0  0
    1.7339   -0.7274    0.0000 C   0  0  0  0  0  0  0  0  0  0  0  0
    3.4187   -0.4741    0.0000 C   0  0  0  0  0  0  0  0  0  0  0  0
    4.1103   -0.9594    0.0000 C   0  0  2  0  0  0  0  0  0  0  0  0
    4.4717   -0.2177    0.0000 O   0  0  0  0  0  0  0  0  0  0  0  0
    3.9953   -1.7964    0.0000 C   0  0  0  0  0  0  0  0  0  0  0  0
    4.8997   -1.1992    0.0000 C   0  0  0  0  0  0  0  0  0  0  0  0
    5.5021   -0.6355    0.0000 C   0  0  0  0  0  0  0  0  0  0  0  0
    0.1738   -1.1537    0.0000 C   0  0  0  0  0  0  0  0  0  0  0  0
   -0.2222   -0.4299    0.0000 O   0  0  0  0  0  0  0  0  0  0  0  0
    0.2066    0.2749    0.0000 C   0  0  0  0  0  0  0  0  0  0  0  0
   -0.4518   -1.6915    0.0000 O   0  0  0  0  0  0  0  0  0  0  0  0
    0.3621    2.6889    0.0000 C   0  0  0  0  0  0  0  0  0  0  0  0
    1.1860    2.7312    0.0000 O   0  0  0  0  0  0  0  0  0  0  0  0
   -1.4688    2.3459    0.0000 C   0  0  2  0  0  0  0  0  0  0  0  0
   -0.8456    2.8865    0.0000 O   0  0  0  0  0  0  0  0  0  0  0  0
   -2.2393    2.0510    0.0000 C   0  0  2  0  0  0  0  0  0  0  0  0
   -2.8799    2.5709    0.0000 O   0  0  0  0  0  0  0  0  0  0  0  0
   -3.6505    2.2761    0.0000 C   0  0  0  0  0  0  0  0  0  0  0  0
   -4.2911    2.7959    0.0000 O   0  0  0  0  0  0  0  0  0  0  0  0
   -3.7614    1.1118    0.0000 C   0  0  0  0  0  0  0  0  0  0  0  0
   -2.3693    1.2363    0.0000 C   0  0  1  0  0  0  0  0  0  0  0  0
   -1.7287    0.7165    0.0000 C   0  0  2  0  0  0  0  0  0  0  0  0
   -1.8586   -0.0982    0.0000 N   0  0  0  0  0  0  0  0  0  0  0  0
   -0.8897   -0.3218    0.0000 C   0  0  0  0  0  0  0  0  0  0  0  0
   -0.4396    0.3696    0.0000 C   0  0  0  0  0  0  0  0  0  0  0  0
   -2.6291   -0.3931    0.0000 C   0  0  0  0  0  0  0  0  0  0  0  0
   -3.2697    0.1268    0.0000 C   0  0  0  0  0  0  0  0  0  0  0  0
   -3.1398    0.9415    0.0000 C   0  0  0  0  0  0  0  0  0  0  0  0
   -3.0099    1.7562    0.0000 C   0  0  0  0  0  0  0  0  0  0  0  0
   -3.7804    1.4613    0.0000 C   0  0  0  0  0  0  0  0  0  0  0  0
   -1.8930    3.0535    0.0000 C   0  0  0  0  0  0  0  0  0  0  0  0
   -1.4923    3.7746    0.0000 O   0  0  0  0  0  0  0  0  0  0  0  0
   -1.9164    4.4822    0.0000 C   0  0  0  0  0  0  0  0  0  0  0  0
   -2.7179    3.0400    0.0000 O   0  0  0  0  0  0  0  0  0  0  0  0
    8.2128   -0.8250    0.0000 O   0  0  0  0  0  0  0  0  0  0  0  0
    8.2128    0.0000    0.0000 S   0  0  0  0  0  0  0  0  0  0  0  0
    8.2128    0.8250    0.0000 O   0  0  0  0  0  0  0  0  0  0  0  0
    9.0378   -0.0000    0.0000 O   0  0  0  0  0  0  0  0  0  0  0  0
    7.3878    0.0000    0.0000 O   0  0  0  0  0  0  0  0  0  0  0  0
  1  2  1  0  0  0  0
  2  3  1  6  0  0  0
  3  4  1  0  0  0  0
  4  5  2  0  0  0  0
  1  5  1  0  0  0  0
  5  6  1  0  0  0  0
  6  7  2  0  0  0  0
  7  8  1  0  0  0  0
  8  9  2  0  0  0  0
  4  9  1  0  0  0  0
  8 10  1  0  0  0  0
 10 11  1  0  0  0  0
 12  7  1  1  0  0  0
 12 13  1  0  0  0  0
 13 14  2  0  0  0  0
 14 15  1  0  0  0  0
 15 16  2  0  0  0  0
 16 17  1  0  0  0  0
 13 17  1  0  0  0  0
 16 18  1  0  0  0  0
 18 19  2  0  0  0  0
 19 20  1  0  0  0  0
 20 21  2  0  0  0  0
 15 21  1  0  0  0  0
 14 22  1  0  0  0  0
 22 23  1  0  0  0  0
 23 24  1  0  0  0  0
 24 25  1  0  0  0  0
 25 26  1  0  0  0  0
 26 27  1  0  0  0  0
 12 27  1  0  0  0  0
 26 28  1  1  0  0  0
 28 29  1  0  0  0  0
 29 30  1  6  0  0  0
 29 31  1  0  0  0  0
 24 31  1  0  0  0  0
 29 32  1  1  0  0  0
 32 33  1  0  0  0  0
 12 34  1  6  0  0  0
 34 35  1  0  0  0  0
 35 36  1  0  0  0  0
 34 37  2  0  0  0  0
  3 38  1  0  0  0  0
 38 39  2  0  0  0  0
  2 40  1  0  0  0  0
 40 41  1  1  0  0  0
 40 42  1  0  0  0  0
 42 43  1  1  0  0  0
 43 44  1  0  0  0  0
 44 45  2  0  0  0  0
 44 46  1  0  0  0  0
 42 47  1  0  0  0  0
 47 48  1  0  0  0  0
  1 48  1  0  0  0  0
 48 49  1  1  0  0  0
 49 50  1  0  0  0  0
 50 51  1  0  0  0  0
  1 51  1  1  0  0  0
 49 52  1  0  0  0  0
 52 53  1  0  0  0  0
 53 54  2  0  0  0  0
 47 54  1  0  0  0  0
 47 55  1  6  0  0  0
 55 56  1  0  0  0  0
 40 57  1  6  0  0  0
 57 58  1  0  0  0  0
 58 59  1  0  0  0  0
 57 60  2  0  0  0  0
 61 62  2  0  0  0  0
 62 63  2  0  0  0  0
 62 64  1  0  0  0  0
 62 65  1  0  0  0  0
M  END
>  <Name>
Vincristine sulfate

>  <CAS>
2068-78-2

>  <Formula>
C46H58N4O14S

>  <MolWt>
923.04 

>  <Bioactivity>
Vincristine is an inhibitor of polymerization of microtubules by binding to tubulin.

>  <Pathways>
Cell Cycle/Checkpoint

>  <Target>
Microtubule Associated inhibitor; MRP inhibitor

>  <Receptor>
MRAP;Microtubules

>  <Reference>
1. Jordan MA, et al. Cancer Res, 1985, 45(6), 2741-2747.

$$$$
59865-13-3
  Mrv1561503291623562D          

 85 85  0  0  0  0            999 V2000
   -0.4876    2.0100    0.0000 C   0  0  0  0  0  0  0  0  0  0  0  0
    0.3364    1.9708    0.0000 C   0  0  0  0  0  0  0  0  0  0  0  0
    0.7145    1.2375    0.0000 N   0  0  0  0  0  0  0  0  0  0  0  0
   -0.0000    0.8250    0.0000 C   0  0  0  0  0  0  0  0  0  0  0  0
   -0.7145    1.2375    0.0000 O   0  0  0  0  0  0  0  0  0  0  0  0
    0.0000    0.0000    0.0000 C   0  0  0  0  0  0  0  0  0  0  0  0
    0.7145   -0.4125    0.0000 N   0  0  0  0  0  0  0  0  0  0  0  0
    0.3364   -1.1458    0.0000 C   0  0  0  0  0  0  0  0  0  0  0  0
   -0.4876   -1.1850    0.0000 O   0  0  0  0  0  0  0  0  0  0  0  0
    0.7825   -1.8398    0.0000 C   0  0  0  0  0  0  0  0  0  0  0  0
    1.6065   -1.8006    0.0000 N   0  0  0  0  0  0  0  0  0  0  0  0
    1.6849   -2.6218    0.0000 C   0  0  0  0  0  0  0  0  0  0  0  0
    1.0129   -3.1004    0.0000 O   0  0  0  0  0  0  0  0  0  0  0  0
    2.4354   -2.9646    0.0000 C   0  0  0  0  0  0  0  0  0  0  0  0
    3.1074   -2.4860    0.0000 N   0  0  0  0  0  0  0  0  0  0  0  0
    3.6174   -3.1345    0.0000 C   0  0  0  0  0  0  0  0  0  0  0  0
    3.3108   -3.9004    0.0000 O   0  0  0  0  0  0  0  0  0  0  0  0
    4.4340   -3.0171    0.0000 C   0  0  0  0  0  0  0  0  0  0  0  0
    4.7406   -2.2512    0.0000 N   0  0  0  0  0  0  0  0  0  0  0  0
    5.5203   -2.5210    0.0000 C   0  0  0  0  0  0  0  0  0  0  0  0
    5.6764   -3.3311    0.0000 O   0  0  0  0  0  0  0  0  0  0  0  0
    6.1437   -1.9808    0.0000 C   0  0  0  0  0  0  0  0  0  0  0  0
    5.9876   -1.1707    0.0000 N   0  0  0  0  0  0  0  0  0  0  0  0
    6.7894   -0.9762    0.0000 C   0  0  0  0  0  0  0  0  0  0  0  0
    7.3587   -1.5732    0.0000 O   0  0  0  0  0  0  0  0  0  0  0  0
    7.0218   -0.1846    0.0000 C   0  0  0  0  0  0  0  0  0  0  0  0
    6.4525    0.4125    0.0000 N   0  0  0  0  0  0  0  0  0  0  0  0
    7.0218    1.0096    0.0000 C   0  0  0  0  0  0  0  0  0  0  0  0
    7.8235    0.8151    0.0000 O   0  0  0  0  0  0  0  0  0  0  0  0
    6.7894    1.8012    0.0000 C   0  0  0  0  0  0  0  0  0  0  0  0
    5.9876    1.9957    0.0000 N   0  0  0  0  0  0  0  0  0  0  0  0
    6.1437    2.8058    0.0000 C   0  0  0  0  0  0  0  0  0  0  0  0
    6.9234    3.0756    0.0000 O   0  0  0  0  0  0  0  0  0  0  0  0
    5.5203    3.3460    0.0000 C   0  0  0  0  0  0  0  0  0  0  0  0
    4.7406    3.0762    0.0000 N   0  0  0  0  0  0  0  0  0  0  0  0
    4.4340    3.8421    0.0000 C   0  0  0  0  0  0  0  0  0  0  0  0
    4.9440    4.4906    0.0000 O   0  0  0  0  0  0  0  0  0  0  0  0
    3.6174    3.9595    0.0000 C   0  0  0  0  0  0  0  0  0  0  0  0
    3.1074    3.3110    0.0000 N   0  0  0  0  0  0  0  0  0  0  0  0
    2.4354    3.7896    0.0000 C   0  0  0  0  0  0  0  0  0  0  0  0
    2.5138    4.6108    0.0000 O   0  0  0  0  0  0  0  0  0  0  0  0
    1.6849    3.4468    0.0000 C   0  0  0  0  0  0  0  0  0  0  0  0
    1.6065    2.6256    0.0000 N   0  0  0  0  0  0  0  0  0  0  0  0
    0.7825    2.6648    0.0000 C   0  0  0  0  0  0  0  0  0  0  0  0
    0.4044    3.3981    0.0000 O   0  0  0  0  0  0  0  0  0  0  0  0
    2.1468    2.0021    0.0000 C   0  0  0  0  0  0  0  0  0  0  0  0
    1.0129    3.9254    0.0000 C   0  0  0  0  0  0  0  0  0  0  0  0
    0.1933    3.8313    0.0000 C   0  0  0  0  0  0  0  0  0  0  0  0
    1.0913    4.7466    0.0000 C   0  0  0  0  0  0  0  0  0  0  0  0
    3.2248    2.4944    0.0000 C   0  0  0  0  0  0  0  0  0  0  0  0
    3.3108    4.7254    0.0000 C   0  0  0  0  0  0  0  0  0  0  0  0
    2.5704    5.0894    0.0000 O   0  0  0  0  0  0  0  0  0  0  0  0
    3.8208    5.3739    0.0000 C   0  0  0  0  0  0  0  0  0  0  0  0
    4.6374    5.2565    0.0000 C   0  0  0  0  0  0  0  0  0  0  0  0
    5.1473    5.9050    0.0000 C   0  0  0  0  0  0  0  0  0  0  0  0
    5.9639    5.7876    0.0000 C   0  0  0  0  0  0  0  0  0  0  0  0
    6.4739    6.4361    0.0000 C   0  0  0  0  0  0  0  0  0  0  0  0
    3.5141    6.1398    0.0000 C   0  0  0  0  0  0  0  0  0  0  0  0
    5.6764    4.1561    0.0000 C   0  0  0  0  0  0  0  0  0  0  0  0
    6.4560    4.4259    0.0000 C   0  0  0  0  0  0  0  0  0  0  0  0
    5.2936    1.5496    0.0000 C   0  0  0  0  0  0  0  0  0  0  0  0
    5.6275    0.4125    0.0000 C   0  0  0  0  0  0  0  0  0  0  0  0
    7.8235    0.0099    0.0000 C   0  0  0  0  0  0  0  0  0  0  0  0
    8.3928   -0.5872    0.0000 C   0  0  0  0  0  0  0  0  0  0  0  0
    9.1946   -0.3927    0.0000 C   0  0  0  0  0  0  0  0  0  0  0  0
    8.1604   -1.3787    0.0000 C   0  0  0  0  0  0  0  0  0  0  0  0
    6.9234   -2.2506    0.0000 C   0  0  0  0  0  0  0  0  0  0  0  0
    7.6833   -1.9294    0.0000 C   0  0  0  0  0  0  0  0  0  0  0  0
    7.0795   -3.0607    0.0000 C   0  0  0  0  0  0  0  0  0  0  0  0
    4.3979   -1.5007    0.0000 C   0  0  0  0  0  0  0  0  0  0  0  0
    4.9440   -3.6656    0.0000 C   0  0  0  0  0  0  0  0  0  0  0  0
    4.6374   -4.4315    0.0000 C   0  0  0  0  0  0  0  0  0  0  0  0
    5.1473   -5.0800    0.0000 C   0  0  0  0  0  0  0  0  0  0  0  0
    3.8208   -4.5489    0.0000 C   0  0  0  0  0  0  0  0  0  0  0  0
    2.5138   -3.7858    0.0000 C   0  0  0  0  0  0  0  0  0  0  0  0
    0.4044   -2.5731    0.0000 C   0  0  0  0  0  0  0  0  0  0  0  0
    1.5061   -0.1801    0.0000 C   0  0  0  0  0  0  0  0  0  0  0  0
   -0.7145   -0.4125    0.0000 C   0  0  0  0  0  0  0  0  0  0  0  0
   -1.4289   -0.0000    0.0000 C   0  0  0  0  0  0  0  0  0  0  0  0
   -2.1434   -0.4125    0.0000 C   0  0  0  0  0  0  0  0  0  0  0  0
   -1.4289    0.8250    0.0000 C   0  0  0  0  0  0  0  0  0  0  0  0
    1.5061    1.0051    0.0000 C   0  0  0  0  0  0  0  0  0  0  0  0
   -0.8657    2.7433    0.0000 C   0  0  0  0  0  0  0  0  0  0  0  0
   -1.6897    2.7826    0.0000 C   0  0  0  0  0  0  0  0  0  0  0  0
   -0.4196    3.4374    0.0000 C   0  0  0  0  0  0  0  0  0  0  0  0
  1  2  1  0  0  0  0
  2  3  1  0  0  0  0
  3  4  1  0  0  0  0
  4  5  2  0  0  0  0
  4  6  1  0  0  0  0
  6  7  1  0  0  0  0
  7  8  1  0  0  0  0
  8  9  2  0  0  0  0
  8 10  1  0  0  0  0
 10 11  1  0  0  0  0
 11 12  1  0  0  0  0
 12 13  2  0  0  0  0
 12 14  1  0  0  0  0
 14 15  1  0  0  0  0
 15 16  1  0  0  0  0
 16 17  2  0  0  0  0
 16 18  1  0  0  0  0
 18 19  1  0  0  0  0
 19 20  1  0  0  0  0
 20 21  2  0  0  0  0
 20 22  1  0  0  0  0
 22 23  1  0  0  0  0
 23 24  1  0  0  0  0
 24 25  2  0  0  0  0
 24 26  1  0  0  0  0
 26 27  1  0  0  0  0
 27 28  1  0  0  0  0
 28 29  2  0  0  0  0
 28 30  1  0  0  0  0
 30 31  1  0  0  0  0
 31 32  1  0  0  0  0
 32 33  2  0  0  0  0
 32 34  1  0  0  0  0
 34 35  1  0  0  0  0
 35 36  1  0  0  0  0
 36 37  2  0  0  0  0
 36 38  1  0  0  0  0
 38 39  1  0  0  0  0
 39 40  1  0  0  0  0
 40 41  2  0  0  0  0
 40 42  1  0  0  0  0
 42 43  1  0  0  0  0
 43 44  1  0  0  0  0
  2 44  1  0  0  0  0
 44 45  2  0  0  0  0
 43 46  1  0  0  0  0
 42 47  1  0  0  0  0
 47 48  1  0  0  0  0
 47 49  1  0  0  0  0
 39 50  1  0  0  0  0
 38 51  1  0  0  0  0
 51 52  1  0  0  0  0
 51 53  1  0  0  0  0
 53 54  1  0  0  0  0
 54 55  1  0  0  0  0
 55 56  2  0  0  0  0
 56 57  1  0  0  0  0
 53 58  1  0  0  0  0
 34 59  1  0  0  0  0
 59 60  1  0  0  0  0
 31 61  1  0  0  0  0
 27 62  1  0  0  0  0
 26 63  1  0  0  0  0
 63 64  1  0  0  0  0
 64 65  1  0  0  0  0
 64 66  1  0  0  0  0
 22 67  1  0  0  0  0
 67 68  1  0  0  0  0
 67 69  1  0  0  0  0
 19 70  1  0  0  0  0
 18 71  1  0  0  0  0
 71 72  1  0  0  0  0
 72 73  1  0  0  0  0
 72 74  1  0  0  0  0
 14 75  1  0  0  0  0
 10 76  1  0  0  0  0
  7 77  1  0  0  0  0
  6 78  1  0  0  0  0
 78 79  1  0  0  0  0
 79 80  1  0  0  0  0
 79 81  1  0  0  0  0
  3 82  1  0  0  0  0
  1 83  1  0  0  0  0
 83 84  1  0  0  0  0
 83 85  1  0  0  0  0
M  END
>  <Name>
Cyclosporin A

>  <CAS>
59865-13-3

>  <Formula>
C62H111N11O12

>  <MolWt>
1202.64 

>  <Bioactivity>
Cyclosporin A is an immunosuppressive agent, binds to the cyclophilin and then inhibits calcineurin with IC50 of 7 nM, widely used in organ transplantation to prevent rejection.

>  <Pathways>
Others

>  <Target>
Others

>  <Receptor>
Calcineurin;MRP1

>  <Reference>
1. Handschumacher RE, et al. Science, 1984, 226(4674), 544-547.

$$$$
242478-38-2
  Mrv1561503291623562D          

 35 38  0  0  1  0            999 V2000
   -0.7776   -0.5653    0.0000 C   0  0  2  0  0  0  0  0  0  0  0  0
   -0.0631   -0.9778    0.0000 N   0  0  0  0  0  0  0  0  0  0  0  0
    0.6514   -0.5653    0.0000 C   0  0  0  0  0  0  0  0  0  0  0  0
    0.6514    0.2597    0.0000 O   0  0  0  0  0  0  0  0  0  0  0  0
    1.3658    0.6722    0.0000 C   0  0  0  0  0  0  0  0  0  0  0  0
    1.3658    1.4972    0.0000 C   0  0  0  0  0  0  0  0  0  0  0  0
    2.0803    1.9097    0.0000 N   0  0  0  0  0  0  0  0  0  0  0  0
    2.7948    1.4972    0.0000 C   0  0  0  0  0  0  0  0  0  0  0  0
    2.7948    0.6722    0.0000 C   0  0  0  0  0  0  0  0  0  0  0  0
    2.0803    0.2597    0.0000 C   0  0  0  0  0  0  0  0  0  0  0  0
    2.2178    0.8097    0.0000 C   0  0  0  0  0  0  0  0  0  0  0  0
    2.2178    1.3597    0.0000 C   0  0  0  0  0  0  0  0  0  0  0  0
    1.3658   -0.9778    0.0000 O   0  0  0  0  0  0  0  0  0  0  0  0
   -0.0631   -1.8028    0.0000 C   0  0  0  0  0  0  0  0  0  0  0  0
   -0.7776   -2.2153    0.0000 C   0  0  0  0  0  0  0  0  0  0  0  0
   -1.4921   -1.8028    0.0000 C   0  0  0  0  0  0  0  0  0  0  0  0
   -2.2065   -2.2153    0.0000 C   0  0  0  0  0  0  0  0  0  0  0  0
   -2.9210   -1.8028    0.0000 C   0  0  0  0  0  0  0  0  0  0  0  0
   -2.9210   -0.9778    0.0000 C   0  0  0  0  0  0  0  0  0  0  0  0
   -2.2065   -0.5653    0.0000 C   0  0  0  0  0  0  0  0  0  0  0  0
   -1.4921   -0.9778    0.0000 C   0  0  0  0  0  0  0  0  0  0  0  0
   -0.7776    0.2597    0.0000 C   0  0  0  0  0  0  0  0  0  0  0  0
   -1.4921    0.6722    0.0000 C   0  0  0  0  0  0  0  0  0  0  0  0
   -1.4921    1.4972    0.0000 C   0  0  0  0  0  0  0  0  0  0  0  0
   -0.7776    1.9097    0.0000 C   0  0  0  0  0  0  0  0  0  0  0  0
   -0.0631    1.4972    0.0000 C   0  0  0  0  0  0  0  0  0  0  0  0
   -0.0631    0.6722    0.0000 C   0  0  0  0  0  0  0  0  0  0  0  0
    6.1094   -0.2063    0.0000 C   0  0  0  0  0  0  0  0  0  0  0  0
    5.3950    0.2062    0.0000 C   0  0  0  0  0  0  0  0  0  0  0  0
    4.6805   -0.2063    0.0000 O   0  0  0  0  0  0  0  0  0  0  0  0
    5.3950    1.0312    0.0000 O   0  0  0  0  0  0  0  0  0  0  0  0
    6.8239    0.2063    0.0000 C   0  0  0  0  0  0  0  0  0  0  0  0
    7.5384   -0.2062    0.0000 C   0  0  0  0  0  0  0  0  0  0  0  0
    8.2528    0.2063    0.0000 O   0  0  0  0  0  0  0  0  0  0  0  0
    7.5384   -1.0312    0.0000 O   0  0  0  0  0  0  0  0  0  0  0  0
  1  2  1  0  0  0  0
  2  3  1  0  0  0  0
  3  4  1  0  0  0  0
  4  5  1  0  0  0  0
  5  6  1  0  0  0  0
  6  7  1  0  0  0  0
  7  8  1  0  0  0  0
  8  9  1  0  0  0  0
  9 10  1  0  0  0  0
  5 10  1  0  0  0  0
 10 11  1  0  0  0  0
 11 12  1  0  0  0  0
  7 12  1  0  0  0  0
  3 13  2  0  0  0  0
  2 14  1  0  0  0  0
 14 15  1  0  0  0  0
 15 16  1  0  0  0  0
 16 17  2  0  0  0  0
 17 18  1  0  0  0  0
 18 19  2  0  0  0  0
 19 20  1  0  0  0  0
 20 21  2  0  0  0  0
  1 21  1  0  0  0  0
 16 21  1  0  0  0  0
  1 22  1  6  0  0  0
 22 23  2  0  0  0  0
 23 24  1  0  0  0  0
 24 25  2  0  0  0  0
 25 26  1  0  0  0  0
 26 27  2  0  0  0  0
 22 27  1  0  0  0  0
 28 29  1  0  0  0  0
 29 30  1  0  0  0  0
 29 31  2  0  0  0  0
 28 32  1  0  0  0  0
 32 33  1  0  0  0  0
 33 34  2  0  0  0  0
 33 35  1  0  0  0  0
M  END
>  <Name>
Solifenacin succinate

>  <CAS>
242478-38-2

>  <Formula>
C23H26N2O2.C4H6O4

>  <MolWt>
480.56 

>  <Bioactivity>
Solifenacin (rINN), marketed as solifenacin succinate under the trade name Vesicare, is a urinary antispasmodic of the anticholinergic class. It is used in the treatment of overactive bladder with urge incontinence.  

>  <Pathways>
Neuroscience

>  <Target>
AChR antagonist

>  <Receptor>
Muscarinic AChR

>  <Reference>
1. Sinha S, et al. Br J Pharmacol. 2010 Jul;160(5):1119-27. 

$$$$
T3066
  Mrv1561503291623562D          

 23 26  0  0  0  0            999 V2000
    1.0458   -4.9202    0.0000 C   0  0  0  0  0  0  0  0  0  0  0  0
    0.2921   -5.2557    0.0000 C   0  0  0  0  0  0  0  0  0  0  0  0
   -0.2599   -4.6426    0.0000 C   0  0  0  0  0  0  0  0  0  0  0  0
    0.1526   -3.9282    0.0000 C   0  0  0  0  0  0  0  0  0  0  0  0
    0.9596   -4.0997    0.0000 C   0  0  0  0  0  0  0  0  0  0  0  0
   -0.1830   -3.1745    0.0000 C   0  0  0  0  0  0  0  0  0  0  0  0
   -1.0034   -3.0882    0.0000 C   0  0  0  0  0  0  0  0  0  0  0  0
   -1.3390   -2.3346    0.0000 C   0  0  0  0  0  0  0  0  0  0  0  0
   -1.6745   -1.5809    0.0000 N   0  0  0  0  0  0  0  0  0  0  0  0
    0.3020   -2.5070    0.0000 N   0  0  0  0  0  0  0  0  0  0  0  0
    0.0470   -1.7224    0.0000 C   0  0  0  0  0  0  0  0  0  0  0  0
    0.7145   -1.2375    0.0000 C   0  0  0  0  0  0  0  0  0  0  0  0
    1.3819   -1.7224    0.0000 C   0  0  0  0  0  0  0  0  0  0  0  0
    1.1270   -2.5070    0.0000 N   0  0  0  0  0  0  0  0  0  0  0  0
    0.7145   -0.4125    0.0000 C   0  0  0  0  0  0  0  0  0  0  0  0
    0.0000    0.0000    0.0000 C   0  0  0  0  0  0  0  0  0  0  0  0
   -0.7846   -0.2549    0.0000 C   0  0  0  0  0  0  0  0  0  0  0  0
   -1.2695    0.4125    0.0000 C   0  0  0  0  0  0  0  0  0  0  0  0
   -0.7846    1.0799    0.0000 N   0  0  0  0  0  0  0  0  0  0  0  0
   -0.0000    0.8250    0.0000 C   0  0  0  0  0  0  0  0  0  0  0  0
    0.7145    1.2375    0.0000 N   0  0  0  0  0  0  0  0  0  0  0  0
    1.4289    0.8250    0.0000 C   0  0  0  0  0  0  0  0  0  0  0  0
    1.4289   -0.0000    0.0000 N   0  0  0  0  0  0  0  0  0  0  0  0
  1  2  1  0  0  0  0
  2  3  1  0  0  0  0
  3  4  1  0  0  0  0
  4  5  1  0  0  0  0
  1  5  1  0  0  0  0
  4  6  1  0  0  0  0
  6  7  1  0  0  0  0
  7  8  1  0  0  0  0
  8  9  3  0  0  0  0
  6 10  1  0  0  0  0
 10 11  1  0  0  0  0
 11 12  2  0  0  0  0
 12 13  1  0  0  0  0
 13 14  2  0  0  0  0
 10 14  1  0  0  0  0
 12 15  1  0  0  0  0
 15 16  2  0  0  0  0
 16 17  1  0  0  0  0
 17 18  2  0  0  0  0
 18 19  1  0  0  0  0
 19 20  1  0  0  0  0
 16 20  1  0  0  0  0
 20 21  2  0  0  0  0
 21 22  1  0  0  0  0
 22 23  2  0  0  0  0
 15 23  1  0  0  0  0
M  END
>  <Name>
Ruxolitinib

>  <CAS>
1160597-27-2

>  <Formula>
C17H18N6

>  <MolWt>
360.36 

>  <Bioactivity>
Ruxolitinib (INCB018424) is the first potent, selective, JAK1/2 inhibitor to enter the clinic with IC50 of 3.3 nM/2.8 nM in cell-free assays, >130-fold selectivity for JAK1/2 versus JAK3.

>  <Pathways>
JAK/STAT Signaling

>  <Target>
JAK inhibitor

>  <Receptor>
JAK1, JAK2

>  <Reference>
1. Quintas-Cardama A, et al. Blood, 2010, 115(15), 3109-3117.

$$$$
T1243
  Mrv1561503291623562D          

 29 32  0  0  1  0            999 V2000
    3.9629    0.9934    0.0000 C   0  0  2  0  0  0  0  0  0  0  0  0
    3.6826    0.2174    0.0000 C   0  0  2  0  0  0  0  0  0  0  0  0
    2.8705    0.0722    0.0000 C   0  0  1  0  0  0  0  0  0  0  0  0
    2.3387    0.7029    0.0000 C   0  0  1  0  0  0  0  0  0  0  0  0
    1.5266    0.5577    0.0000 C   0  0  2  0  0  0  0  0  0  0  0  0
    1.2463   -0.2182    0.0000 C   0  0  0  0  0  0  0  0  0  0  0  0
    0.4342   -0.3634    0.0000 C   0  0  0  0  0  0  0  0  0  0  0  0
   -0.0976    0.2673    0.0000 C   0  0  0  0  0  0  0  0  0  0  0  0
   -0.9098    0.1221    0.0000 O   0  0  0  0  0  0  0  0  0  0  0  0
    0.1827    1.0432    0.0000 C   0  0  0  0  0  0  0  0  0  0  0  0
    0.9948    1.1884    0.0000 C   0  0  0  0  0  0  0  0  0  0  0  0
    1.7781   -0.8489    0.0000 C   0  0  0  0  0  0  0  0  0  0  0  0
    2.5902   -0.7037    0.0000 C   0  0  0  0  0  0  0  0  0  0  0  0
    1.8069    1.3336    0.0000 C   0  0  0  0  0  0  0  0  0  0  0  0
    2.6190    1.4789    0.0000 C   0  0  2  0  0  0  0  0  0  0  0  0
    3.4311    1.6241    0.0000 C   0  0  0  0  0  0  0  0  0  0  0  0
    2.0872    2.1096    0.0000 O   0  0  0  0  0  0  0  0  0  0  0  0
    4.3340   -0.2889    0.0000 C   0  0  0  0  0  0  0  0  0  0  0  0
    5.0168    0.1741    0.0000 C   0  0  0  0  0  0  0  0  0  0  0  0
    4.7875    0.9666    0.0000 C   0  0  2  0  0  0  0  0  0  0  0  0
    5.5484    1.2854    0.0000 C   0  0  0  0  0  0  0  0  0  0  0  0
    6.2050    0.7859    0.0000 C   0  0  0  0  0  0  0  0  0  0  0  0
    6.9659    1.1048    0.0000 O   0  0  0  0  0  0  0  0  0  0  0  0
    7.6225    0.6053    0.0000 C   0  0  0  0  0  0  0  0  0  0  0  0
    8.3834    0.9242    0.0000 C   0  0  0  0  0  0  0  0  0  0  0  0
    7.5182   -0.2131    0.0000 O   0  0  0  0  0  0  0  0  0  0  0  0
    5.6527    2.1038    0.0000 O   0  0  0  0  0  0  0  0  0  0  0  0
    4.9089    1.7826    0.0000 O   0  0  0  0  0  0  0  0  0  0  0  0
    4.3228    1.7357    0.0000 C   0  0  0  0  0  0  0  0  0  0  0  0
  1  2  1  0  0  0  0
  2  3  1  0  0  0  0
  3  4  1  0  0  0  0
  4  5  1  0  0  0  0
  5  6  1  0  0  0  0
  6  7  2  0  0  0  0
  7  8  1  0  0  0  0
  8  9  2  0  0  0  0
  8 10  1  0  0  0  0
 10 11  1  0  0  0  0
  5 11  1  0  0  0  0
  6 12  1  0  0  0  0
 12 13  1  0  0  0  0
  3 13  1  6  0  0  0
  5 14  1  1  0  0  0
  4 15  1  1  0  0  0
 15 16  1  0  0  0  0
  1 16  1  0  0  0  0
 15 17  1  1  0  0  0
  2 18  1  1  0  0  0
 18 19  1  0  0  0  0
 19 20  1  0  0  0  0
  1 20  1  0  0  0  0
 20 21  1  1  0  0  0
 21 22  1  0  0  0  0
 22 23  1  0  0  0  0
 23 24  1  0  0  0  0
 24 25  1  0  0  0  0
 24 26  2  0  0  0  0
 21 27  2  0  0  0  0
 20 28  1  6  0  0  0
  1 29  1  1  0  0  0
M  END
>  <Name>
Hydrocortisone acetate

>  <CAS>
50-03-3

>  <Formula>
C23H32O6

>  <MolWt>
404.50 

>  <Bioactivity>
The main glucocorticoid secreted by the adrenal cortex. Its synthetic counterpart is used, either as an injection or topically, in the treatment of inflammation, allergy, collagen diseases, asthma, adrenocortical deficiency, shock, and some neoplastic conditions. 

>  <Pathways>
Endocrinology/ Hormones

>  <Target>
Annexin A;Glucocorticoid Receptor inhibitor

>  <Receptor>
Annexin A1;Glucocorticoid Receptor

>  <Reference>
1. Grossman R, et al. Ann N Y Acad Sci. 2006 Jul;1071:410-21.

$$$$
T1025
  Mrv1561503291623562D          

 12 11  0  0  1  0            999 V2000
   -0.1127   -0.7344    0.0000 C   0  0  0  0  0  0  0  0  0  0  0  0
    0.2998   -1.4489    0.0000 C   0  0  0  0  0  0  0  0  0  0  0  0
    1.0143   -1.8614    0.0000 N   0  0  0  0  0  0  0  0  0  0  0  0
   -0.5252   -1.4489    0.0000 C   0  0  0  0  0  0  0  0  0  0  0  0
   -0.1127    0.0906    0.0000 C   0  0  0  0  0  0  0  0  0  0  0  0
   -0.8272    0.5031    0.0000 C   0  0  0  0  0  0  0  0  0  0  0  0
   -0.8272    1.3281    0.0000 C   0  0  0  0  0  0  0  0  0  0  0  0
   -0.1127    1.7406    0.0000 C   0  0  0  0  0  0  0  0  0  0  0  0
    0.6018    1.3281    0.0000 C   0  0  0  0  0  0  0  0  0  0  0  0
    0.6018    0.5031    0.0000 C   0  0  0  0  0  0  0  0  0  0  0  0
    4.1964    0.0000    0.0000 H   0  3  0  0  0  0  0  0  0  0  0  0
    3.3714    0.0000    0.0000 Cl  0  5  0  0  0  0  0  0  0  0  0  0
  1  2  1  0  0  0  0
  2  3  1  0  0  0  0
  2  4  1  0  0  0  0
  1  4  1  0  0  0  0
  1  5  1  0  0  0  0
  5  6  2  0  0  0  0
  6  7  1  0  0  0  0
  7  8  2  0  0  0  0
  8  9  1  0  0  0  0
  9 10  2  0  0  0  0
  5 10  1  0  0  0  0
M  CHG  2  11   1  12  -1
M  END
>  <Name>
Tranylcypromine (2-PCPA) HCl

>  <CAS>
1986-47-6

>  <Formula>
C9H11N.HCl

>  <MolWt>
169.66 

>  <Bioactivity>
Tranylcypromine is a drug of the substituted phenethylamine and amphetamine classes which acts as a monoamine oxidase inhibitor (MAOI)—it is a nonselective and irreversible inhibitor of the enzyme monoamine oxidase (MAO).

>  <Pathways>
Chromatin/Epigenetic; Metabolism

>  <Target>
Histone Demethylase inhibitor; MAO inhibitor

>  <Receptor>
MAO;Histone Demethylases

>  <Reference>
1. Taavitsainen P, et al. Drug Metab Dispos, 2001, 29(3), 217-222.

$$$$
78755-81-4
  Mrv1561503291623562D          

 22 24  0  0  0  0            999 V2000
    1.9486    0.9939    0.0000 C   0  0  0  0  0  0  0  0  0  0  0  0
    2.7519    1.1821    0.0000 N   0  0  0  0  0  0  0  0  0  0  0  0
    2.8210    2.0042    0.0000 C   0  0  0  0  0  0  0  0  0  0  0  0
    2.0605    2.3241    0.0000 C   0  0  0  0  0  0  0  0  0  0  0  0
    1.5214    1.6996    0.0000 N   0  0  0  0  0  0  0  0  0  0  0  0
    0.6970    1.7318    0.0000 C   0  0  0  0  0  0  0  0  0  0  0  0
    0.2082    2.3964    0.0000 C   0  0  0  0  0  0  0  0  0  0  0  0
    0.4230    3.1929    0.0000 C   0  0  0  0  0  0  0  0  0  0  0  0
   -0.2014    3.7321    0.0000 O   0  0  0  0  0  0  0  0  0  0  0  0
    1.1797    3.5216    0.0000 N   0  0  0  0  0  0  0  0  0  0  0  0
    1.9085    3.1349    0.0000 C   0  0  0  0  0  0  0  0  0  0  0  0
    1.2119    4.3460    0.0000 C   0  0  0  0  0  0  0  0  0  0  0  0
   -0.6118    2.3054    0.0000 C   0  0  0  0  0  0  0  0  0  0  0  0
   -0.9429    1.5498    0.0000 C   0  0  0  0  0  0  0  0  0  0  0  0
   -1.7629    1.4587    0.0000 F   0  0  0  0  0  0  0  0  0  0  0  0
   -0.4541    0.8852    0.0000 C   0  0  0  0  0  0  0  0  0  0  0  0
    0.3659    0.9762    0.0000 C   0  0  0  0  0  0  0  0  0  0  0  0
    3.5268    2.4315    0.0000 C   0  0  0  0  0  0  0  0  0  0  0  0
    3.5096    3.2563    0.0000 O   0  0  0  0  0  0  0  0  0  0  0  0
    4.2153    3.6836    0.0000 C   0  0  0  0  0  0  0  0  0  0  0  0
    4.1982    4.5084    0.0000 C   0  0  0  0  0  0  0  0  0  0  0  0
    4.2497    2.0340    0.0000 O   0  0  0  0  0  0  0  0  0  0  0  0
  1  2  2  0  0  0  0
  2  3  1  0  0  0  0
  3  4  2  0  0  0  0
  4  5  1  0  0  0  0
  1  5  1  0  0  0  0
  5  6  1  0  0  0  0
  6  7  2  0  0  0  0
  7  8  1  0  0  0  0
  8  9  2  0  0  0  0
  8 10  1  0  0  0  0
 10 11  1  0  0  0  0
  4 11  1  0  0  0  0
 10 12  1  0  0  0  0
  7 13  1  0  0  0  0
 13 14  2  0  0  0  0
 14 15  1  0  0  0  0
 14 16  1  0  0  0  0
 16 17  2  0  0  0  0
  6 17  1  0  0  0  0
  3 18  1  0  0  0  0
 18 19  1  0  0  0  0
 19 20  1  0  0  0  0
 20 21  1  0  0  0  0
 18 22  2  0  0  0  0
M  END
>  <Name>
Flumazenil

>  <CAS>
78755-81-4

>  <Formula>
C15H14FN3O3

>  <MolWt>
303.29 

>  <Bioactivity>
A potent benzodiazepine receptor antagonist. Since it reverses the sedative and other actions of benzodiazepines, it has been suggested as an antidote to benzodiazepine overdoses. 

>  <Pathways>
Neuroscience

>  <Target>
GABAR antagonist

>  <Receptor>
GABAR

>  <Reference>
1. Wingrove PB, et al. Eur J Pharmacol. 2002 Feb 15;437(1-2):31-9. 

$$$$
69004-03-1
  Mrv1561503291623562D          

 29 31  0  0  0  0            999 V2000
    2.8579   -1.6500    0.0000 C   0  0  0  0  0  0  0  0  0  0  0  0
    2.8579   -2.4750    0.0000 C   0  0  0  0  0  0  0  0  0  0  0  0
    2.1434   -2.8875    0.0000 C   0  0  0  0  0  0  0  0  0  0  0  0
    1.4289   -2.4750    0.0000 C   0  0  0  0  0  0  0  0  0  0  0  0
    1.4289   -1.6500    0.0000 C   0  0  0  0  0  0  0  0  0  0  0  0
    2.1434   -1.2375    0.0000 C   0  0  0  0  0  0  0  0  0  0  0  0
    2.1434   -0.4125    0.0000 N   0  0  0  0  0  0  0  0  0  0  0  0
    1.4289   -0.0000    0.0000 C   0  0  0  0  0  0  0  0  0  0  0  0
    1.4289    0.8250    0.0000 N   0  0  0  0  0  0  0  0  0  0  0  0
    2.1434    1.2375    0.0000 C   0  0  0  0  0  0  0  0  0  0  0  0
    2.1434    2.0625    0.0000 O   0  0  0  0  0  0  0  0  0  0  0  0
    2.8579    0.8250    0.0000 N   0  0  0  0  0  0  0  0  0  0  0  0
    2.8579   -0.0000    0.0000 C   0  0  0  0  0  0  0  0  0  0  0  0
    3.5724   -0.4125    0.0000 O   0  0  0  0  0  0  0  0  0  0  0  0
    0.7145    1.2375    0.0000 C   0  0  0  0  0  0  0  0  0  0  0  0
    0.7145   -0.4125    0.0000 O   0  0  0  0  0  0  0  0  0  0  0  0
    2.1434   -3.7125    0.0000 O   0  0  0  0  0  0  0  0  0  0  0  0
    1.4289   -4.1250    0.0000 C   0  0  0  0  0  0  0  0  0  0  0  0
    1.4289   -4.9500    0.0000 C   0  0  0  0  0  0  0  0  0  0  0  0
    0.7145   -5.3625    0.0000 C   0  0  0  0  0  0  0  0  0  0  0  0
   -0.0000   -4.9500    0.0000 C   0  0  0  0  0  0  0  0  0  0  0  0
   -0.0000   -4.1250    0.0000 C   0  0  0  0  0  0  0  0  0  0  0  0
    0.7145   -3.7125    0.0000 C   0  0  0  0  0  0  0  0  0  0  0  0
   -0.7145   -5.3625    0.0000 S   0  0  0  0  0  0  0  0  0  0  0  0
   -0.7145   -6.1875    0.0000 C   0  0  0  0  0  0  0  0  0  0  0  0
   -0.7145   -7.0125    0.0000 F   0  0  0  0  0  0  0  0  0  0  0  0
   -1.5395   -6.1875    0.0000 F   0  0  0  0  0  0  0  0  0  0  0  0
    0.1105   -6.1875    0.0000 F   0  0  0  0  0  0  0  0  0  0  0  0
    3.5724   -2.8875    0.0000 C   0  0  0  0  0  0  0  0  0  0  0  0
  1  2  2  0  0  0  0
  2  3  1  0  0  0  0
  3  4  2  0  0  0  0
  4  5  1  0  0  0  0
  5  6  2  0  0  0  0
  1  6  1  0  0  0  0
  6  7  1  0  0  0  0
  7  8  1  0  0  0  0
  8  9  1  0  0  0  0
  9 10  1  0  0  0  0
 10 11  2  0  0  0  0
 10 12  1  0  0  0  0
 12 13  1  0  0  0  0
  7 13  1  0  0  0  0
 13 14  2  0  0  0  0
  9 15  1  0  0  0  0
  8 16  2  0  0  0  0
  3 17  1  0  0  0  0
 17 18  1  0  0  0  0
 18 19  2  0  0  0  0
 19 20  1  0  0  0  0
 20 21  2  0  0  0  0
 21 22  1  0  0  0  0
 22 23  2  0  0  0  0
 18 23  1  0  0  0  0
 21 24  1  0  0  0  0
 24 25  1  0  0  0  0
 25 26  1  0  0  0  0
 25 27  1  0  0  0  0
 25 28  1  0  0  0  0
  2 29  1  0  0  0  0
M  END
>  <Name>
Toltrazuril

>  <CAS>
69004-03-1

>  <Formula>
C18H14F3N3O4S

>  <MolWt>
425.38 

>  <Bioactivity>
Toltrazuril is an antiprotozoal agent that acts upon Coccidia parasites.

>  <Pathways>
Others

>  <Target>
Others

>  <Receptor>
Others

>  <Reference>
1. Mehlhorn H, et al. Parasitol Res, 1988, 75(1), 64-66.

$$$$
T0320
  Mrv1561503291623562D          

 29 31  0  0  1  0            999 V2000
    3.1223    3.5835    0.0000 C   0  0  2  0  0  0  0  0  0  0  0  0
    3.3336    2.7860    0.0000 C   0  0  0  0  0  0  0  0  0  0  0  0
    4.1581    2.8144    0.0000 C   0  0  0  0  0  0  0  0  0  0  0  0
    4.6944    2.1875    0.0000 C   0  0  0  0  0  0  0  0  0  0  0  0
    5.4919    2.3987    0.0000 O   0  0  0  0  0  0  0  0  0  0  0  0
    4.5386    1.3774    0.0000 C   0  0  0  0  0  0  0  0  0  0  0  0
    3.8081    0.9940    0.0000 C   0  0  0  0  0  0  0  0  0  0  0  0
    3.0529    1.3261    0.0000 C   0  0  0  0  0  0  0  0  0  0  0  0
    2.8417    2.1236    0.0000 C   0  0  0  0  0  0  0  0  0  0  0  0
    2.0172    2.0952    0.0000 C   0  0  0  0  0  0  0  0  0  0  0  0
    1.7425    1.3173    0.0000 C   0  0  0  0  0  0  0  0  0  0  0  0
    0.9314    1.1662    0.0000 C   0  0  0  0  0  0  0  0  0  0  0  0
    0.3951    1.7931    0.0000 C   0  0  0  0  0  0  0  0  0  0  0  0
   -0.4160    1.6421    0.0000 O   0  0  0  0  0  0  0  0  0  0  0  0
   -0.9523    2.2690    0.0000 C   0  0  0  0  0  0  0  0  0  0  0  0
    0.6698    2.5710    0.0000 C   0  0  0  0  0  0  0  0  0  0  0  0
    1.4809    2.7221    0.0000 C   0  0  0  0  0  0  0  0  0  0  0  0
    1.6366    3.5322    0.0000 C   0  0  0  0  0  0  0  0  0  0  0  0
    2.3671    3.9156    0.0000 C   0  0  0  0  0  0  0  0  0  0  0  0
    0.6567    0.3883    0.0000 O   0  0  0  0  0  0  0  0  0  0  0  0
   -0.1544    0.2373    0.0000 C   0  0  0  0  0  0  0  0  0  0  0  0
    2.2788    0.6904    0.0000 O   0  0  0  0  0  0  0  0  0  0  0  0
    2.0040   -0.0875    0.0000 C   0  0  0  0  0  0  0  0  0  0  0  0
    5.2010    0.8855    0.0000 O   0  0  0  0  0  0  0  0  0  0  0  0
    5.9581    1.2132    0.0000 C   0  0  0  0  0  0  0  0  0  0  0  0
    3.7492    4.1198    0.0000 N   0  0  0  0  0  0  0  0  0  0  0  0
    3.5982    4.9309    0.0000 C   0  0  0  0  0  0  0  0  0  0  0  0
    2.8203    5.2056    0.0000 C   0  0  0  0  0  0  0  0  0  0  0  0
    4.2251    5.4672    0.0000 O   0  0  0  0  0  0  0  0  0  0  0  0
  1  2  1  0  0  0  0
  2  3  2  0  0  0  0
  3  4  1  0  0  0  0
  4  5  2  0  0  0  0
  4  6  1  0  0  0  0
  6  7  2  0  0  0  0
  7  8  1  0  0  0  0
  8  9  2  0  0  0  0
  2  9  1  0  0  0  0
  9 10  1  0  0  0  0
 10 11  2  0  0  0  0
 11 12  1  0  0  0  0
 12 13  2  0  0  0  0
 13 14  1  0  0  0  0
 14 15  1  0  0  0  0
 13 16  1  0  0  0  0
 16 17  2  0  0  0  0
 10 17  1  0  0  0  0
 17 18  1  0  0  0  0
 18 19  1  0  0  0  0
  1 19  1  0  0  0  0
 12 20  1  0  0  0  0
 20 21  1  0  0  0  0
 11 22  1  0  0  0  0
 22 23  1  0  0  0  0
  6 24  1  0  0  0  0
 24 25  1  0  0  0  0
  1 26  1  6  0  0  0
 26 27  1  0  0  0  0
 27 28  1  0  0  0  0
 27 29  2  0  0  0  0
M  END
>  <Name>
Colchicine

>  <CAS>
64-86-8

>  <Formula>
C22H25NO6

>  <MolWt>
399.44 

>  <Bioactivity>
A major alkaloid from Colchicum autumnale L. and found also in other Colchicum species. Its primary therapeutic use is in the treatment of gout, but it has been used also in the therapy of familial Mediterranean fever (PERIODIC DISEASE). 

>  <Pathways>
Cell Cycle/Checkpoint

>  <Target>
Microtubule Associated inhibitor

>  <Receptor>
Tubulin beta chain

>  <Reference>
1. Yee KW, et al. Clin Cancer Res. 2005 Sep 15;11(18):6615-24.

$$$$
T1668
  Mrv1561503291623562D          

 64 71  0  0  1  0            999 V2000
   -0.9380    1.0576    0.0000 C   0  0  2  0  0  0  0  0  0  0  0  0
   -0.8081    1.8723    0.0000 C   0  0  1  0  0  0  0  0  0  0  0  0
    0.0069    2.0005    0.0000 N   0  0  0  0  0  0  0  0  0  0  0  0
    0.3806    1.2650    0.0000 C   0  0  0  0  0  0  0  0  0  0  0  0
   -0.2034    0.6823    0.0000 C   0  0  0  0  0  0  0  0  0  0  0  0
    0.0093   -0.1148    0.0000 C   0  0  0  0  0  0  0  0  0  0  0  0
    0.8060   -0.3292    0.0000 C   0  0  0  0  0  0  0  0  0  0  0  0
    1.3900    0.2535    0.0000 C   0  0  0  0  0  0  0  0  0  0  0  0
    1.1773    1.0507    0.0000 C   0  0  0  0  0  0  0  0  0  0  0  0
    2.1866    0.0392    0.0000 O   0  0  0  0  0  0  0  0  0  0  0  0
    2.7706    0.6219    0.0000 C   0  0  0  0  0  0  0  0  0  0  0  0
    1.0187   -1.1263    0.0000 C   0  0  2  0  0  0  0  0  0  0  0  0
    0.7646   -1.9288    0.0000 C   0  0  0  0  0  0  0  0  0  0  0  0
    1.0943   -2.6850    0.0000 C   0  0  0  0  0  0  0  0  0  0  0  0
    0.4770   -3.2323    0.0000 C   0  0  0  0  0  0  0  0  0  0  0  0
   -0.2343   -2.8144    0.0000 C   0  0  0  0  0  0  0  0  0  0  0  0
   -0.0565   -2.0087    0.0000 N   0  0  0  0  0  0  0  0  0  0  0  0
   -0.9519   -3.2214    0.0000 C   0  0  0  0  0  0  0  0  0  0  0  0
   -0.9582   -4.0463    0.0000 C   0  0  0  0  0  0  0  0  0  0  0  0
   -0.2469   -4.4643    0.0000 C   0  0  0  0  0  0  0  0  0  0  0  0
    0.4707   -4.0573    0.0000 C   0  0  0  0  0  0  0  0  0  0  0  0
    1.8567   -3.0482    0.0000 C   0  0  0  0  0  0  0  0  0  0  0  0
    2.6833   -2.8123    0.0000 C   0  0  0  0  0  0  0  0  0  0  0  0
    3.2309   -2.1361    0.0000 N   0  0  0  0  0  0  0  0  0  0  0  0
    2.8594   -1.4673    0.0000 C   0  0  0  0  0  0  0  0  0  0  0  0
    2.6221   -0.7400    0.0000 C   0  0  1  0  0  0  0  0  0  0  0  0
    1.7540   -0.6811    0.0000 C   0  0  0  0  0  0  0  0  0  0  0  0
    3.4388   -0.4278    0.0000 C   0  0  0  0  0  0  0  0  0  0  0  0
    4.1304   -0.9131    0.0000 C   0  0  2  0  0  0  0  0  0  0  0  0
    4.4918   -0.1715    0.0000 O   0  0  0  0  0  0  0  0  0  0  0  0
    4.0154   -1.7501    0.0000 C   0  0  0  0  0  0  0  0  0  0  0  0
    4.9198   -1.1529    0.0000 C   0  0  0  0  0  0  0  0  0  0  0  0
    5.5222   -0.5892    0.0000 C   0  0  0  0  0  0  0  0  0  0  0  0
    0.1939   -1.1074    0.0000 C   0  0  0  0  0  0  0  0  0  0  0  0
   -0.2021   -0.3836    0.0000 O   0  0  0  0  0  0  0  0  0  0  0  0
    0.2267    0.3212    0.0000 C   0  0  0  0  0  0  0  0  0  0  0  0
   -0.4317   -1.6452    0.0000 O   0  0  0  0  0  0  0  0  0  0  0  0
    0.3822    2.7352    0.0000 C   0  0  0  0  0  0  0  0  0  0  0  0
   -1.4487    2.3922    0.0000 C   0  0  2  0  0  0  0  0  0  0  0  0
   -0.8255    2.9328    0.0000 O   0  0  0  0  0  0  0  0  0  0  0  0
   -2.2192    2.0973    0.0000 C   0  0  2  0  0  0  0  0  0  0  0  0
   -2.8598    2.6172    0.0000 O   0  0  0  0  0  0  0  0  0  0  0  0
   -3.6304    2.3223    0.0000 C   0  0  0  0  0  0  0  0  0  0  0  0
   -4.2710    2.8422    0.0000 O   0  0  0  0  0  0  0  0  0  0  0  0
   -3.7413    1.1581    0.0000 C   0  0  0  0  0  0  0  0  0  0  0  0
   -2.3492    1.2826    0.0000 C   0  0  1  0  0  0  0  0  0  0  0  0
   -1.7086    0.7627    0.0000 C   0  0  2  0  0  0  0  0  0  0  0  0
   -1.8385   -0.0520    0.0000 N   0  0  0  0  0  0  0  0  0  0  0  0
   -0.8696   -0.2755    0.0000 C   0  0  0  0  0  0  0  0  0  0  0  0
   -0.4195    0.4159    0.0000 C   0  0  0  0  0  0  0  0  0  0  0  0
   -2.6090   -0.3468    0.0000 C   0  0  0  0  0  0  0  0  0  0  0  0
   -3.2496    0.1731    0.0000 C   0  0  0  0  0  0  0  0  0  0  0  0
   -3.1197    0.9878    0.0000 C   0  0  0  0  0  0  0  0  0  0  0  0
   -2.9898    1.8025    0.0000 C   0  0  0  0  0  0  0  0  0  0  0  0
   -3.7603    1.5076    0.0000 C   0  0  0  0  0  0  0  0  0  0  0  0
   -1.8729    3.0998    0.0000 C   0  0  0  0  0  0  0  0  0  0  0  0
   -1.4722    3.8209    0.0000 O   0  0  0  0  0  0  0  0  0  0  0  0
   -1.8963    4.5285    0.0000 C   0  0  0  0  0  0  0  0  0  0  0  0
   -2.6978    3.0862    0.0000 O   0  0  0  0  0  0  0  0  0  0  0  0
    8.2329   -0.8250    0.0000 O   0  0  0  0  0  0  0  0  0  0  0  0
    8.2329    0.0000    0.0000 S   0  0  0  0  0  0  0  0  0  0  0  0
    8.2329    0.8250    0.0000 O   0  0  0  0  0  0  0  0  0  0  0  0
    9.0579   -0.0000    0.0000 O   0  0  0  0  0  0  0  0  0  0  0  0
    7.4079    0.0000    0.0000 O   0  0  0  0  0  0  0  0  0  0  0  0
  1  2  1  0  0  0  0
  2  3  1  6  0  0  0
  3  4  1  0  0  0  0
  4  5  2  0  0  0  0
  1  5  1  0  0  0  0
  5  6  1  0  0  0  0
  6  7  2  0  0  0  0
  7  8  1  0  0  0  0
  8  9  2  0  0  0  0
  4  9  1  0  0  0  0
  8 10  1  0  0  0  0
 10 11  1  0  0  0  0
 12  7  1  1  0  0  0
 12 13  1  0  0  0  0
 13 14  2  0  0  0  0
 14 15  1  0  0  0  0
 15 16  2  0  0  0  0
 16 17  1  0  0  0  0
 13 17  1  0  0  0  0
 16 18  1  0  0  0  0
 18 19  2  0  0  0  0
 19 20  1  0  0  0  0
 20 21  2  0  0  0  0
 15 21  1  0  0  0  0
 14 22  1  0  0  0  0
 22 23  1  0  0  0  0
 23 24  1  0  0  0  0
 24 25  1  0  0  0  0
 25 26  1  0  0  0  0
 26 27  1  0  0  0  0
 12 27  1  0  0  0  0
 26 28  1  1  0  0  0
 28 29  1  0  0  0  0
 29 30  1  6  0  0  0
 29 31  1  0  0  0  0
 24 31  1  0  0  0  0
 29 32  1  1  0  0  0
 32 33  1  0  0  0  0
 12 34  1  6  0  0  0
 34 35  1  0  0  0  0
 35 36  1  0  0  0  0
 34 37  2  0  0  0  0
  3 38  1  0  0  0  0
  2 39  1  0  0  0  0
 39 40  1  1  0  0  0
 39 41  1  0  0  0  0
 41 42  1  1  0  0  0
 42 43  1  0  0  0  0
 43 44  2  0  0  0  0
 43 45  1  0  0  0  0
 41 46  1  0  0  0  0
 46 47  1  0  0  0  0
  1 47  1  0  0  0  0
 47 48  1  1  0  0  0
 48 49  1  0  0  0  0
 49 50  1  0  0  0  0
  1 50  1  1  0  0  0
 48 51  1  0  0  0  0
 51 52  1  0  0  0  0
 52 53  2  0  0  0  0
 46 53  1  0  0  0  0
 46 54  1  6  0  0  0
 54 55  1  0  0  0  0
 39 56  1  6  0  0  0
 56 57  1  0  0  0  0
 57 58  1  0  0  0  0
 56 59  2  0  0  0  0
 60 61  2  0  0  0  0
 61 62  2  0  0  0  0
 61 63  1  0  0  0  0
 61 64  1  0  0  0  0
M  END
>  <Name>
Vinblastine sulfate

>  <CAS>
143-67-9

>  <Formula>
C46H58N4O9H2SO4

>  <MolWt>
909.06 

>  <Bioactivity>
Vinblastine inhibits microtubule formation and suppresses nAChR activity in a cell-free assay, used to treat certain kinds of cancer.

>  <Pathways>
Cell Cycle/Checkpoint

>  <Target>
Microtubule Associated inhibitor; MRP inhibitor

>  <Receptor>
tublin chain;MRP1

>  <Reference>
1. Gigant B, et al. Nature, 2005, 435(7041), 519-522.

$$$$
162359-56-0
  Mrv1561503291623562D          

 24 22  0  0  0  0            999 V2000
    0.4125    0.0000    0.0000 H   0  3  0  0  0  0  0  0  0  0  0  0
    5.8706   -0.4550    0.0000 C   0  0  0  0  0  0  0  0  0  0  0  0
    5.8706    0.3700    0.0000 C   0  0  0  0  0  0  0  0  0  0  0  0
    5.1561    0.7825    0.0000 C   0  0  0  0  0  0  0  0  0  0  0  0
    4.4416    0.3700    0.0000 C   0  0  0  0  0  0  0  0  0  0  0  0
    3.7272    0.7825    0.0000 C   0  0  0  0  0  0  0  0  0  0  0  0
    4.1397    1.4969    0.0000 N   0  0  0  0  0  0  0  0  0  0  0  0
    3.0127    1.1950    0.0000 C   0  0  0  0  0  0  0  0  0  0  0  0
    2.2982    0.7825    0.0000 O   0  0  0  0  0  0  0  0  0  0  0  0
    3.3147    0.0680    0.0000 C   0  0  0  0  0  0  0  0  0  0  0  0
    2.4897    0.0680    0.0000 O   0  0  0  0  0  0  0  0  0  0  0  0
    6.5850    0.7825    0.0000 C   0  0  0  0  0  0  0  0  0  0  0  0
    7.2995    0.3700    0.0000 C   0  0  0  0  0  0  0  0  0  0  0  0
    7.2995   -0.4550    0.0000 C   0  0  0  0  0  0  0  0  0  0  0  0
    6.5850   -0.8675    0.0000 C   0  0  0  0  0  0  0  0  0  0  0  0
    8.0140   -0.8675    0.0000 C   0  0  0  0  0  0  0  0  0  0  0  0
    8.7285   -0.4550    0.0000 C   0  0  0  0  0  0  0  0  0  0  0  0
    9.4429   -0.8675    0.0000 C   0  0  0  0  0  0  0  0  0  0  0  0
   10.1574   -0.4550    0.0000 C   0  0  0  0  0  0  0  0  0  0  0  0
   10.8719   -0.8675    0.0000 C   0  0  0  0  0  0  0  0  0  0  0  0
   11.5863   -0.4550    0.0000 C   0  0  0  0  0  0  0  0  0  0  0  0
   12.3008   -0.8675    0.0000 C   0  0  0  0  0  0  0  0  0  0  0  0
   13.0153   -0.4550    0.0000 C   0  0  0  0  0  0  0  0  0  0  0  0
   -0.4125    0.0000    0.0000 Cl  0  5  0  0  0  0  0  0  0  0  0  0
  2  3  2  0  0  0  0
  3  4  1  0  0  0  0
  4  5  1  0  0  0  0
  5  6  1  0  0  0  0
  6  7  1  0  0  0  0
  6  8  1  0  0  0  0
  8  9  1  0  0  0  0
  6 10  1  0  0  0  0
 10 11  1  0  0  0  0
  3 12  1  0  0  0  0
 12 13  2  0  0  0  0
 13 14  1  0  0  0  0
 14 15  2  0  0  0  0
  2 15  1  0  0  0  0
 14 16  1  0  0  0  0
 16 17  1  0  0  0  0
 17 18  1  0  0  0  0
 18 19  1  0  0  0  0
 19 20  1  0  0  0  0
 20 21  1  0  0  0  0
 21 22  1  0  0  0  0
 22 23  1  0  0  0  0
M  CHG  2   1   1  24  -1
M  END
>  <Name>
Fingolimod (FTY720) HCl

>  <CAS>
162359-56-0

>  <Formula>
C19H34ClNO2

>  <MolWt>
343.93 

>  <Bioactivity>
Fingolimod (FTY720) HCl is a S1P antagonist with IC50 of 0.033 nM in K562, and NK cells.

>  <Pathways>
GPCR/G Protein

>  <Target>
S1P Receptor antagonist 

>  <Receptor>
S1P receptor

>  <Reference>
1. Rolin J, et al. Cancer Immunol Immunother. 2010, 59(4), 575-586.

$$$$
T1829
  Mrv1561503291623562D          

 23 26  0  0  0  0            999 V2000
    1.0458   -4.9202    0.0000 C   0  0  0  0  0  0  0  0  0  0  0  0
    0.2921   -5.2557    0.0000 C   0  0  0  0  0  0  0  0  0  0  0  0
   -0.2599   -4.6426    0.0000 C   0  0  0  0  0  0  0  0  0  0  0  0
    0.1526   -3.9282    0.0000 C   0  0  0  0  0  0  0  0  0  0  0  0
    0.9596   -4.0997    0.0000 C   0  0  0  0  0  0  0  0  0  0  0  0
   -0.1830   -3.1745    0.0000 C   0  0  0  0  0  0  0  0  0  0  0  0
   -1.0034   -3.0882    0.0000 C   0  0  0  0  0  0  0  0  0  0  0  0
   -1.3390   -2.3346    0.0000 C   0  0  0  0  0  0  0  0  0  0  0  0
   -1.6745   -1.5809    0.0000 N   0  0  0  0  0  0  0  0  0  0  0  0
    0.3020   -2.5070    0.0000 N   0  0  0  0  0  0  0  0  0  0  0  0
    0.0470   -1.7224    0.0000 C   0  0  0  0  0  0  0  0  0  0  0  0
    0.7145   -1.2375    0.0000 C   0  0  0  0  0  0  0  0  0  0  0  0
    1.3819   -1.7224    0.0000 C   0  0  0  0  0  0  0  0  0  0  0  0
    1.1270   -2.5070    0.0000 N   0  0  0  0  0  0  0  0  0  0  0  0
    0.7145   -0.4125    0.0000 C   0  0  0  0  0  0  0  0  0  0  0  0
    0.0000    0.0000    0.0000 C   0  0  0  0  0  0  0  0  0  0  0  0
   -0.7846   -0.2549    0.0000 C   0  0  0  0  0  0  0  0  0  0  0  0
   -1.2695    0.4125    0.0000 C   0  0  0  0  0  0  0  0  0  0  0  0
   -0.7846    1.0799    0.0000 N   0  0  0  0  0  0  0  0  0  0  0  0
   -0.0000    0.8250    0.0000 C   0  0  0  0  0  0  0  0  0  0  0  0
    0.7145    1.2375    0.0000 N   0  0  0  0  0  0  0  0  0  0  0  0
    1.4289    0.8250    0.0000 C   0  0  0  0  0  0  0  0  0  0  0  0
    1.4289   -0.0000    0.0000 N   0  0  0  0  0  0  0  0  0  0  0  0
  1  2  1  0  0  0  0
  2  3  1  0  0  0  0
  3  4  1  0  0  0  0
  4  5  1  0  0  0  0
  1  5  1  0  0  0  0
  4  6  1  0  0  0  0
  6  7  1  0  0  0  0
  7  8  1  0  0  0  0
  8  9  3  0  0  0  0
  6 10  1  0  0  0  0
 10 11  1  0  0  0  0
 11 12  2  0  0  0  0
 12 13  1  0  0  0  0
 13 14  2  0  0  0  0
 10 14  1  0  0  0  0
 12 15  1  0  0  0  0
 15 16  2  0  0  0  0
 16 17  1  0  0  0  0
 17 18  2  0  0  0  0
 18 19  1  0  0  0  0
 19 20  1  0  0  0  0
 16 20  1  0  0  0  0
 20 21  2  0  0  0  0
 21 22  1  0  0  0  0
 22 23  2  0  0  0  0
 15 23  1  0  0  0  0
M  END
>  <Name>
Ruxolitinib (INCB018424)

>  <CAS>
941678-49-5

>  <Formula>
C17H18N6

>  <MolWt>
306.37 

>  <Bioactivity>
Ruxolitinib(INCB018424) is the first potent, selective, JAK1/2 inhibitor to enter the clinic with IC50 of 3.3 nM/2.8 nM, >130-fold selectivity for JAK1/2 versus JAK3.

>  <Pathways>
JAK/STAT Signaling

>  <Target>
JAK inhibitor

>  <Receptor>
JAK1/2

>  <Reference>
1. Quintas-Cardama A, et al. Blood, 2010, 115(15), 3109-3117.

$$$$
T0967
  Mrv1561503291623562D          

132145  0  0  1  0            999 V2000
   14.9721    6.0448    0.0000 C   0  0  2  0  0  0  0  0  0  0  0  0
   14.6942    6.8321    0.0000 N   0  0  0  0  0  0  0  0  0  0  0  0
   14.0208    7.3337    0.0000 C   0  0  0  0  0  0  0  0  0  0  0  0
   14.2753    8.1184    0.0000 O   0  0  0  0  0  0  0  0  0  0  0  0
   13.1722    7.3228    0.0000 C   0  0  1  0  0  0  0  0  0  0  0  0
   12.8911    6.5255    0.0000 N   0  0  0  0  0  0  0  0  0  0  0  0
   12.4690    5.7962    0.0000 C   0  0  0  0  0  0  0  0  0  0  0  0
   11.7109    6.1216    0.0000 O   0  0  0  0  0  0  0  0  0  0  0  0
   12.2289    4.9802    0.0000 C   0  0  2  0  0  0  0  0  0  0  0  0
   11.4273    5.2945    0.0000 N   0  0  0  0  0  0  0  0  0  0  0  0
   10.5577    5.2453    0.0000 C   0  0  0  0  0  0  0  0  0  0  0  0
   10.4415    6.0620    0.0000 O   0  0  0  0  0  0  0  0  0  0  0  0
    9.6103    5.0275    0.0000 C   0  0  2  0  0  0  0  0  0  0  0  0
    9.2640    4.2285    0.0000 N   0  0  0  0  0  0  0  0  0  0  0  0
    8.9799    3.4269    0.0000 C   0  0  0  0  0  0  0  0  0  0  0  0
    8.1613    3.5293    0.0000 O   0  0  0  0  0  0  0  0  0  0  0  0
    9.0575    2.5824    0.0000 C   0  0  1  0  0  0  0  0  0  0  0  0
    8.2632    2.1553    0.0000 N   0  0  0  0  0  0  0  0  0  0  0  0
    7.3813    2.0138    0.0000 C   0  0  0  0  0  0  0  0  0  0  0  0
    7.2887    1.1941    0.0000 O   0  0  0  0  0  0  0  0  0  0  0  0
    6.5471    2.3510    0.0000 C   0  0  2  0  0  0  0  0  0  0  0  0
    7.0471    2.9898    0.0000 N   0  0  0  0  0  0  0  0  0  0  0  0
    7.7815    3.3359    0.0000 C   0  0  0  0  0  0  0  0  0  0  0  0
    8.5359    3.0020    0.0000 O   0  0  0  0  0  0  0  0  0  0  0  0
    7.5454    4.1076    0.0000 C   0  0  2  0  0  0  0  0  0  0  0  0
    6.7272    4.0025    0.0000 N   0  0  0  0  0  0  0  0  0  0  0  0
    7.5792    4.9242    0.0000 C   0  0  0  0  0  0  0  0  0  0  0  0
    8.3990    4.8559    0.0000 C   0  0  0  0  0  0  0  0  0  0  0  0
    8.9818    5.4699    0.0000 C   0  0  0  0  0  0  0  0  0  0  0  0
    8.4979    6.3057    0.0000 C   0  0  0  0  0  0  0  0  0  0  0  0
    8.9843    6.9721    0.0000 O   0  0  0  0  0  0  0  0  0  0  0  0
    7.5885    6.5042    0.0000 C   0  0  0  0  0  0  0  0  0  0  0  0
    7.2574    5.6773    0.0000 C   0  0  0  0  0  0  0  0  0  0  0  0
    9.9626    5.3315    0.0000 O   0  0  0  0  0  0  0  0  0  0  0  0
   10.3182    4.3965    0.0000 C   0  0  0  0  0  0  0  0  0  0  0  0
    9.8240    3.6904    0.0000 C   0  0  0  0  0  0  0  0  0  0  0  0
    9.9045    2.8565    0.0000 C   0  0  0  0  0  0  0  0  0  0  0  0
   10.7221    2.6765    0.0000 C   0  0  0  0  0  0  0  0  0  0  0  0
   11.3029    3.2710    0.0000 C   0  0  0  0  0  0  0  0  0  0  0  0
   11.0993    4.0828    0.0000 C   0  0  0  0  0  0  0  0  0  0  0  0
   12.0993    3.0558    0.0000 O   0  0  0  0  0  0  0  0  0  0  0  0
    5.8782    2.9563    0.0000 C   0  0  0  0  0  0  0  0  0  0  0  0
    5.5343    3.7886    0.0000 C   0  0  0  0  0  0  0  0  0  0  0  0
    4.9899    4.4520    0.0000 C   0  0  0  0  0  0  0  0  0  0  0  0
    5.2575    5.2629    0.0000 C   0  0  0  0  0  0  0  0  0  0  0  0
    6.0789    5.5263    0.0000 C   0  0  0  0  0  0  0  0  0  0  0  0
    6.7926    6.1119    0.0000 O   0  0  0  0  0  0  0  0  0  0  0  0
    7.7947    6.1321    0.0000 C   0  0  0  0  0  0  0  0  0  0  0  0
    8.0339    7.0354    0.0000 C   0  0  0  0  0  0  0  0  0  0  0  0
    7.4118    7.5773    0.0000 O   0  0  0  0  0  0  0  0  0  0  0  0
    7.5701    8.3870    0.0000 C   0  0  2  0  0  0  0  0  0  0  0  0
    8.3504    8.6548    0.0000 O   0  0  0  0  0  0  0  0  0  0  0  0
    8.5087    9.4644    0.0000 C   0  0  1  0  0  0  0  0  0  0  0  0
    7.8866   10.0063    0.0000 C   0  0  1  0  0  0  0  0  0  0  0  0
    8.0448   10.8160    0.0000 O   0  0  0  0  0  0  0  0  0  0  0  0
    7.1063    9.7386    0.0000 C   0  0  2  0  0  0  0  0  0  0  0  0
    6.4842   10.2805    0.0000 O   0  0  0  0  0  0  0  0  0  0  0  0
    6.9480    8.9289    0.0000 C   0  0  1  0  0  0  0  0  0  0  0  0
    6.1677    8.6611    0.0000 N   0  0  0  0  0  0  0  0  0  0  0  0
    5.5456    9.2030    0.0000 C   0  0  0  0  0  0  0  0  0  0  0  0
    5.7038   10.0127    0.0000 O   0  0  0  0  0  0  0  0  0  0  0  0
    4.7653    8.9352    0.0000 C   0  0  0  0  0  0  0  0  0  0  0  0
    4.1432    9.4771    0.0000 C   0  0  0  0  0  0  0  0  0  0  0  0
    3.3628    9.2093    0.0000 C   0  0  0  0  0  0  0  0  0  0  0  0
    2.7408    9.7512    0.0000 C   0  0  0  0  0  0  0  0  0  0  0  0
    1.9604    9.4835    0.0000 C   0  0  0  0  0  0  0  0  0  0  0  0
    1.3384   10.0254    0.0000 C   0  0  0  0  0  0  0  0  0  0  0  0
    0.5580    9.7576    0.0000 C   0  0  0  0  0  0  0  0  0  0  0  0
   -0.0640   10.2995    0.0000 C   0  0  0  0  0  0  0  0  0  0  0  0
   -0.8444   10.0317    0.0000 C   0  0  0  0  0  0  0  0  0  0  0  0
    9.2890    9.7322    0.0000 C   0  0  0  0  0  0  0  0  0  0  0  0
    9.4472   10.5419    0.0000 O   0  0  0  0  0  0  0  0  0  0  0  0
    8.8216    7.3650    0.0000 C   0  0  0  0  0  0  0  0  0  0  0  0
    9.4325    6.7869    0.0000 C   0  0  0  0  0  0  0  0  0  0  0  0
    9.3345    5.9420    0.0000 C   0  0  0  0  0  0  0  0  0  0  0  0
    8.4683    5.6932    0.0000 C   0  0  0  0  0  0  0  0  0  0  0  0
    9.3220    8.0651    0.0000 O   0  0  0  0  0  0  0  0  0  0  0  0
   10.0962    8.4455    0.0000 C   0  0  0  0  0  0  0  0  0  0  0  0
   10.5851    9.1325    0.0000 C   0  0  0  0  0  0  0  0  0  0  0  0
   11.4206    9.0727    0.0000 C   0  0  0  0  0  0  0  0  0  0  0  0
   11.8133    8.3275    0.0000 C   0  0  0  0  0  0  0  0  0  0  0  0
   12.5745    7.9338    0.0000 C   0  0  1  0  0  0  0  0  0  0  0  0
   13.0651    8.5970    0.0000 O   0  0  0  0  0  0  0  0  0  0  0  0
   12.7360    9.3535    0.0000 C   0  0  2  0  0  0  0  0  0  0  0  0
   11.9162    9.4468    0.0000 O   0  0  0  0  0  0  0  0  0  0  0  0
   11.5871   10.2033    0.0000 C   0  0  1  0  0  0  0  0  0  0  0  0
   12.0777   10.8666    0.0000 C   0  0  1  0  0  0  0  0  0  0  0  0
   11.7486   11.6231    0.0000 O   0  0  0  0  0  0  0  0  0  0  0  0
   12.8974   10.7733    0.0000 C   0  0  2  0  0  0  0  0  0  0  0  0
   13.3880   11.4366    0.0000 O   0  0  0  0  0  0  0  0  0  0  0  0
   13.2266   10.0168    0.0000 C   0  0  1  0  0  0  0  0  0  0  0  0
   14.0463    9.9236    0.0000 N   0  0  0  0  0  0  0  0  0  0  0  0
   14.5369   10.5869    0.0000 C   0  0  0  0  0  0  0  0  0  0  0  0
   14.2077   11.3434    0.0000 O   0  0  0  0  0  0  0  0  0  0  0  0
   15.3566   10.4937    0.0000 C   0  0  0  0  0  0  0  0  0  0  0  0
   10.7674   10.2965    0.0000 C   0  0  0  0  0  0  0  0  0  0  0  0
   10.4383   11.0530    0.0000 O   0  0  0  0  0  0  0  0  0  0  0  0
   11.3173    7.6573    0.0000 C   0  0  0  0  0  0  0  0  0  0  0  0
   10.4942    7.7130    0.0000 C   0  0  0  0  0  0  0  0  0  0  0  0
   10.0488    7.0185    0.0000 Cl  0  0  0  0  0  0  0  0  0  0  0  0
    6.5268    4.8325    0.0000 C   0  0  0  0  0  0  0  0  0  0  0  0
    6.3143    4.0326    0.0000 C   0  0  0  0  0  0  0  0  0  0  0  0
    7.2620    5.2068    0.0000 Cl  0  0  0  0  0  0  0  0  0  0  0  0
   12.8249    4.3383    0.0000 C   0  0  0  0  0  0  0  0  0  0  0  0
   12.7254    3.5025    0.0000 C   0  0  0  0  0  0  0  0  0  0  0  0
   13.3458    2.9461    0.0000 C   0  0  0  0  0  0  0  0  0  0  0  0
   14.1260    3.2297    0.0000 C   0  0  0  0  0  0  0  0  0  0  0  0
   14.7514    2.6917    0.0000 O   0  0  0  0  0  0  0  0  0  0  0  0
   14.2913    4.0514    0.0000 C   0  0  0  0  0  0  0  0  0  0  0  0
   13.6290    4.5706    0.0000 C   0  0  0  0  0  0  0  0  0  0  0  0
   15.0318    4.4664    0.0000 C   0  0  0  0  0  0  0  0  0  0  0  0
   15.2757    5.2545    0.0000 C   0  0  0  0  0  0  0  0  0  0  0  0
   16.0802    5.4372    0.0000 C   0  0  0  0  0  0  0  0  0  0  0  0
   16.6408    4.8319    0.0000 C   0  0  0  0  0  0  0  0  0  0  0  0
   17.4453    5.0147    0.0000 O   0  0  0  0  0  0  0  0  0  0  0  0
   16.3968    4.0438    0.0000 C   0  0  0  0  0  0  0  0  0  0  0  0
   15.5923    3.8611    0.0000 C   0  0  0  0  0  0  0  0  0  0  0  0
   15.3483    3.0730    0.0000 O   0  0  0  0  0  0  0  0  0  0  0  0
   15.9088    2.4676    0.0000 C   0  0  1  0  0  0  0  0  0  0  0  0
   16.7133    2.6504    0.0000 O   0  0  0  0  0  0  0  0  0  0  0  0
   17.2738    2.0450    0.0000 C   0  0  1  0  0  0  0  0  0  0  0  0
   17.0299    1.2569    0.0000 C   0  0  1  0  0  0  0  0  0  0  0  0
   17.5904    0.6516    0.0000 O   0  0  0  0  0  0  0  0  0  0  0  0
   16.2254    1.0742    0.0000 C   0  0  2  0  0  0  0  0  0  0  0  0
   15.9814    0.2861    0.0000 O   0  0  0  0  0  0  0  0  0  0  0  0
   15.6648    1.6795    0.0000 C   0  0  2  0  0  0  0  0  0  0  0  0
   14.8603    1.4968    0.0000 O   0  0  0  0  0  0  0  0  0  0  0  0
   18.0783    2.2278    0.0000 C   0  0  0  0  0  0  0  0  0  0  0  0
   18.6389    1.6224    0.0000 O   0  0  0  0  0  0  0  0  0  0  0  0
   15.7462    6.3301    0.0000 C   0  0  0  0  0  0  0  0  0  0  0  0
   16.3803    5.8023    0.0000 O   0  0  0  0  0  0  0  0  0  0  0  0
   15.8862    7.1431    0.0000 O   0  0  0  0  0  0  0  0  0  0  0  0
  1  2  1  0  0  0  0
  2  3  1  0  0  0  0
  3  4  2  0  0  0  0
  3  5  1  0  0  0  0
  5  6  1  1  0  0  0
  6  7  1  0  0  0  0
  7  8  2  0  0  0  0
  7  9  1  0  0  0  0
  9 10  1  0  0  0  0
 10 11  1  0  0  0  0
 11 12  2  0  0  0  0
 11 13  1  0  0  0  0
 13 14  1  6  0  0  0
 14 15  1  0  0  0  0
 15 16  2  0  0  0  0
 15 17  1  0  0  0  0
 17 18  1  6  0  0  0
 18 19  1  0  0  0  0
 19 20  2  0  0  0  0
 19 21  1  0  0  0  0
 21 22  1  6  0  0  0
 22 23  1  0  0  0  0
 23 24  2  0  0  0  0
 23 25  1  0  0  0  0
 25 26  1  6  0  0  0
 25 27  1  0  0  0  0
 27 28  2  0  0  0  0
 28 29  1  0  0  0  0
 29 30  2  0  0  0  0
 30 31  1  0  0  0  0
 30 32  1  0  0  0  0
 32 33  2  0  0  0  0
 27 33  1  0  0  0  0
 29 34  1  0  0  0  0
 34 35  1  0  0  0  0
 35 36  2  0  0  0  0
 36 37  1  0  0  0  0
 17 37  1  0  0  0  0
 37 38  2  0  0  0  0
 38 39  1  0  0  0  0
 39 40  2  0  0  0  0
 35 40  1  0  0  0  0
 39 41  1  0  0  0  0
 21 42  1  0  0  0  0
 42 43  1  0  0  0  0
 43 44  2  0  0  0  0
 44 45  1  0  0  0  0
 45 46  2  0  0  0  0
 46 47  1  0  0  0  0
 47 48  1  0  0  0  0
 48 49  2  0  0  0  0
 49 50  1  0  0  0  0
 51 50  1  1  0  0  0
 51 52  1  0  0  0  0
 52 53  1  0  0  0  0
 53 54  1  0  0  0  0
 54 55  1  6  0  0  0
 54 56  1  0  0  0  0
 56 57  1  1  0  0  0
 56 58  1  0  0  0  0
 51 58  1  0  0  0  0
 58 59  1  6  0  0  0
 59 60  1  0  0  0  0
 60 61  2  0  0  0  0
 60 62  1  0  0  0  0
 62 63  1  0  0  0  0
 63 64  1  0  0  0  0
 64 65  1  0  0  0  0
 65 66  1  0  0  0  0
 66 67  1  0  0  0  0
 67 68  1  0  0  0  0
 68 69  1  0  0  0  0
 69 70  1  0  0  0  0
 53 71  1  1  0  0  0
 71 72  1  0  0  0  0
 49 73  1  0  0  0  0
 73 74  2  0  0  0  0
 74 75  1  0  0  0  0
 13 75  1  0  0  0  0
 75 76  2  0  0  0  0
 48 76  1  0  0  0  0
 73 77  1  0  0  0  0
 77 78  1  0  0  0  0
 78 79  2  0  0  0  0
 79 80  1  0  0  0  0
 80 81  2  0  0  0  0
 81 82  1  0  0  0  0
  5 82  1  0  0  0  0
 82 83  1  1  0  0  0
 84 83  1  6  0  0  0
 84 85  1  0  0  0  0
 85 86  1  0  0  0  0
 86 87  1  0  0  0  0
 87 88  1  1  0  0  0
 87 89  1  0  0  0  0
 89 90  1  6  0  0  0
 89 91  1  0  0  0  0
 84 91  1  0  0  0  0
 91 92  1  1  0  0  0
 92 93  1  0  0  0  0
 93 94  2  0  0  0  0
 93 95  1  0  0  0  0
 86 96  1  6  0  0  0
 96 97  1  0  0  0  0
 81 98  1  0  0  0  0
 98 99  2  0  0  0  0
 78 99  1  0  0  0  0
 99100  1  0  0  0  0
 46101  1  0  0  0  0
101102  2  0  0  0  0
 43102  1  0  0  0  0
101103  1  0  0  0  0
  9104  1  1  0  0  0
104105  2  0  0  0  0
105106  1  0  0  0  0
106107  2  0  0  0  0
107108  1  0  0  0  0
107109  1  0  0  0  0
109110  2  0  0  0  0
104110  1  0  0  0  0
109111  1  0  0  0  0
111112  2  0  0  0  0
  1112  1  0  0  0  0
112113  1  0  0  0  0
113114  2  0  0  0  0
114115  1  0  0  0  0
114116  1  0  0  0  0
116117  2  0  0  0  0
111117  1  0  0  0  0
117118  1  0  0  0  0
119118  1  1  0  0  0
119120  1  0  0  0  0
120121  1  0  0  0  0
121122  1  0  0  0  0
122123  1  1  0  0  0
122124  1  0  0  0  0
124125  1  6  0  0  0
124126  1  0  0  0  0
119126  1  0  0  0  0
126127  1  6  0  0  0
121128  1  6  0  0  0
128129  1  0  0  0  0
  1130  1  6  0  0  0
130131  2  0  0  0  0
130132  1  0  0  0  0
M  END
>  <Name>
Teicoplanin

>  <CAS>
61036-62-2

>  <Formula>
C77H77N5O31CI2R

>  <MolWt>
1709.39 

>  <Bioactivity>
Glycopeptide antibiotic complex from Actinoplanes teichomyceticus active against gram-positive bacteria. It consists of five major components each with a different fatty acid moiety.


>  <Pathways>
Microbiology & Virology

>  <Target>
Antibacterial

>  <Receptor>
Others

>  <Reference>
1. Bereczki I, et al. Bioorg Med Chem Lett. 2014 Aug 1;24(15):3251-4. 

$$$$
51-24-1
  Mrv1561503291623562D          

 22 22  0  0  0  0            999 V2000
    2.8579   -1.6500    0.0000 C   0  0  0  0  0  0  0  0  0  0  0  0
    2.8579   -2.4750    0.0000 C   0  0  0  0  0  0  0  0  0  0  0  0
    2.1434   -2.8875    0.0000 C   0  0  0  0  0  0  0  0  0  0  0  0
    1.4289   -2.4750    0.0000 C   0  0  0  0  0  0  0  0  0  0  0  0
    0.7145   -2.8875    0.0000 I   0  0  0  0  0  0  0  0  0  0  0  0
    1.4289   -1.6500    0.0000 C   0  0  0  0  0  0  0  0  0  0  0  0
    2.1434   -1.2375    0.0000 C   0  0  0  0  0  0  0  0  0  0  0  0
    2.1434   -0.4125    0.0000 I   0  0  0  0  0  0  0  0  0  0  0  0
    0.7145   -1.2375    0.0000 O   0  0  0  0  0  0  0  0  0  0  0  0
    0.7145   -0.4125    0.0000 C   0  0  0  0  0  0  0  0  0  0  0  0
    0.0000    0.0000    0.0000 C   0  0  0  0  0  0  0  0  0  0  0  0
    0.0000    0.8250    0.0000 C   0  0  0  0  0  0  0  0  0  0  0  0
    0.7145    1.2375    0.0000 C   0  0  0  0  0  0  0  0  0  0  0  0
    0.7145    2.0625    0.0000 O   0  0  0  0  0  0  0  0  0  0  0  0
    1.4289    0.8250    0.0000 C   0  0  0  0  0  0  0  0  0  0  0  0
    1.4289    0.0000    0.0000 C   0  0  0  0  0  0  0  0  0  0  0  0
   -0.7145    1.2375    0.0000 I   0  0  0  0  0  0  0  0  0  0  0  0
    3.5724   -2.8875    0.0000 C   0  0  0  0  0  0  0  0  0  0  0  0
    3.5724   -3.7125    0.0000 C   0  0  0  0  0  0  0  0  0  0  0  0
    4.2868   -4.1250    0.0000 O   0  5  0  0  0  0  0  0  0  0  0  0
    2.8579   -4.1250    0.0000 O   0  0  0  0  0  0  0  0  0  0  0  0
    5.0013   -4.5375    0.0000 Na  0  3  0  0  0  0  0  0  0  0  0  0
  1  2  2  0  0  0  0
  2  3  1  0  0  0  0
  3  4  2  0  0  0  0
  4  5  1  0  0  0  0
  4  6  1  0  0  0  0
  6  7  2  0  0  0  0
  1  7  1  0  0  0  0
  7  8  1  0  0  0  0
  6  9  1  0  0  0  0
  9 10  1  0  0  0  0
 10 11  2  0  0  0  0
 11 12  1  0  0  0  0
 12 13  2  0  0  0  0
 13 14  1  0  0  0  0
 13 15  1  0  0  0  0
 15 16  2  0  0  0  0
 10 16  1  0  0  0  0
 12 17  1  0  0  0  0
  2 18  1  0  0  0  0
 18 19  1  0  0  0  0
 19 20  1  0  0  0  0
 19 21  2  0  0  0  0
M  CHG  2  20  -1  22   1
M  END
>  <Name>
Tiratricol

>  <CAS>
51-24-1

>  <Formula>
C14H9I3O4

>  <MolWt>
621.93 

>  <Bioactivity>
Tiratricol (also known as TRIAC or triiodothyroacetic acid) is a thyroid hormone analogue.

>  <Pathways>
Endocrinology/ Hormones

>  <Target>
Thyroid hormone analogue agonist

>  <Receptor>
thyroid hormone

>  <Reference>
1. Carvalho GA, et al. Arq Bras Endocrinol Metabol, 2004, 48(1), 83-92.

$$$$
T1265
  Mrv1561503291623562D          

 14 15  0  0  0  0            999 V2000
    1.4289   -1.6500    0.0000 C   0  0  0  0  0  0  0  0  0  0  0  0
    1.4289   -2.4750    0.0000 C   0  0  0  0  0  0  0  0  0  0  0  0
    0.7145   -2.8875    0.0000 N   0  0  0  0  0  0  0  0  0  0  0  0
   -0.0000   -2.4750    0.0000 C   0  0  0  0  0  0  0  0  0  0  0  0
   -0.0000   -1.6500    0.0000 C   0  0  0  0  0  0  0  0  0  0  0  0
    0.7145   -1.2375    0.0000 C   0  0  0  0  0  0  0  0  0  0  0  0
    0.7145   -0.4125    0.0000 C   0  0  0  0  0  0  0  0  0  0  0  0
    0.0000    0.0000    0.0000 C   0  0  0  0  0  0  0  0  0  0  0  0
    0.0000    0.8250    0.0000 N   0  0  0  0  0  0  0  0  0  0  0  0
    0.7145    1.2375    0.0000 C   0  0  0  0  0  0  0  0  0  0  0  0
    1.4289    0.8250    0.0000 C   0  0  0  0  0  0  0  0  0  0  0  0
    1.4289   -0.0000    0.0000 C   0  0  0  0  0  0  0  0  0  0  0  0
    2.1434    1.2375    0.0000 N   0  0  0  0  0  0  0  0  0  0  0  0
    0.7145    2.0625    0.0000 O   0  0  0  0  0  0  0  0  0  0  0  0
  1  2  2  0  0  0  0
  2  3  1  0  0  0  0
  3  4  2  0  0  0  0
  4  5  1  0  0  0  0
  5  6  2  0  0  0  0
  1  6  1  0  0  0  0
  6  7  1  0  0  0  0
  7  8  2  0  0  0  0
  8  9  1  0  0  0  0
  9 10  1  0  0  0  0
 10 11  1  0  0  0  0
 11 12  2  0  0  0  0
  7 12  1  0  0  0  0
 11 13  1  0  0  0  0
 10 14  2  0  0  0  0
M  END
>  <Name>
Amrinone

>  <CAS>
60719-84-8

>  <Formula>
C10H9N3O

>  <MolWt>
187.20 

>  <Bioactivity>
A positive inotropic cardiotonic (CARDIOTONIC AGENTS) with vasodilator properties, phosphodiesterase 3 inhibitory activity, and the ability to stimulate calcium ion influx into the cardiac cell.

>  <Pathways>
Metabolism; Immunology/Inflammation

>  <Target>
TNF-alpha inhibitor; PDE inhibitor

>  <Receptor>
TNF;PDE

>  <Reference>
1. Kobayashi T, et al. J Hepatol. 2002 Jul; 37(1):31-8. 

$$$$
3978-86-7
  Mrv1561503291623562D          

 38 39  0  0  0  0            999 V2000
    1.6500   -0.0000    0.0000 O   0  0  0  0  0  0  0  0  0  0  0  0
    0.8250    0.0000    0.0000 C   0  0  0  0  0  0  0  0  0  0  0  0
    0.4125   -0.7145    0.0000 O   0  0  0  0  0  0  0  0  0  0  0  0
    0.4125    0.7145    0.0000 C   0  0  0  0  0  0  0  0  0  0  0  0
   -0.4125    0.7145    0.0000 C   0  0  0  0  0  0  0  0  0  0  0  0
   -0.8250    0.0000    0.0000 C   0  0  0  0  0  0  0  0  0  0  0  0
   -0.4125   -0.7145    0.0000 O   0  0  0  0  0  0  0  0  0  0  0  0
   -1.6500    0.0000    0.0000 O   0  0  0  0  0  0  0  0  0  0  0  0
    6.8357   -0.0000    0.0000 O   0  0  0  0  0  0  0  0  0  0  0  0
    6.0107    0.0000    0.0000 C   0  0  0  0  0  0  0  0  0  0  0  0
    5.5982   -0.7145    0.0000 O   0  0  0  0  0  0  0  0  0  0  0  0
    5.5982    0.7145    0.0000 C   0  0  0  0  0  0  0  0  0  0  0  0
    4.7732    0.7145    0.0000 C   0  0  0  0  0  0  0  0  0  0  0  0
    4.3607    0.0000    0.0000 C   0  0  0  0  0  0  0  0  0  0  0  0
    4.7732   -0.7145    0.0000 O   0  0  0  0  0  0  0  0  0  0  0  0
    3.5357    0.0000    0.0000 O   0  0  0  0  0  0  0  0  0  0  0  0
    1.3481   -4.3749    0.0000 C   0  0  0  0  0  0  0  0  0  0  0  0
    2.1364   -4.1318    0.0000 C   0  0  0  0  0  0  0  0  0  0  0  0
    2.3200   -3.3275    0.0000 C   0  0  0  0  0  0  0  0  0  0  0  0
    1.7152   -2.7663    0.0000 C   0  0  0  0  0  0  0  0  0  0  0  0
    0.9269   -3.0095    0.0000 C   0  0  0  0  0  0  0  0  0  0  0  0
    0.7433   -3.8138    0.0000 C   0  0  0  0  0  0  0  0  0  0  0  0
    0.0000   -4.1718    0.0000 C   0  0  0  0  0  0  0  0  0  0  0  0
   -0.7433   -3.8138    0.0000 C   0  0  0  0  0  0  0  0  0  0  0  0
   -1.3481   -4.3749    0.0000 N   0  0  0  0  0  0  0  0  0  0  0  0
   -2.1364   -4.1318    0.0000 C   0  0  0  0  0  0  0  0  0  0  0  0
   -2.3200   -3.3275    0.0000 C   0  0  0  0  0  0  0  0  0  0  0  0
   -1.7152   -2.7663    0.0000 C   0  0  0  0  0  0  0  0  0  0  0  0
   -0.9269   -3.0095    0.0000 C   0  0  0  0  0  0  0  0  0  0  0  0
   -0.4125   -2.3645    0.0000 C   0  0  0  0  0  0  0  0  0  0  0  0
    0.4125   -2.3645    0.0000 C   0  0  0  0  0  0  0  0  0  0  0  0
    0.0000   -4.9968    0.0000 C   0  0  0  0  0  0  0  0  0  0  0  0
    0.7145   -5.4093    0.0000 C   0  0  0  0  0  0  0  0  0  0  0  0
    0.7145   -6.2343    0.0000 C   0  0  0  0  0  0  0  0  0  0  0  0
    0.0000   -6.6468    0.0000 N   0  0  0  0  0  0  0  0  0  0  0  0
   -0.7145   -6.2343    0.0000 C   0  0  0  0  0  0  0  0  0  0  0  0
   -0.7145   -5.4093    0.0000 C   0  0  0  0  0  0  0  0  0  0  0  0
   -0.0000   -7.4718    0.0000 C   0  0  0  0  0  0  0  0  0  0  0  0
  1  2  2  0  0  0  0
  2  3  1  0  0  0  0
  2  4  1  0  0  0  0
  4  5  2  0  0  0  0
  5  6  1  0  0  0  0
  6  7  2  0  0  0  0
  6  8  1  0  0  0  0
  9 10  2  0  0  0  0
 10 11  1  0  0  0  0
 10 12  1  0  0  0  0
 12 13  2  0  0  0  0
 13 14  1  0  0  0  0
 14 15  2  0  0  0  0
 14 16  1  0  0  0  0
 17 18  2  0  0  0  0
 18 19  1  0  0  0  0
 19 20  2  0  0  0  0
 20 21  1  0  0  0  0
 21 22  2  0  0  0  0
 17 22  1  0  0  0  0
 22 23  1  0  0  0  0
 23 24  1  0  0  0  0
 24 25  2  0  0  0  0
 25 26  1  0  0  0  0
 26 27  2  0  0  0  0
 27 28  1  0  0  0  0
 28 29  2  0  0  0  0
 24 29  1  0  0  0  0
 29 30  1  0  0  0  0
 30 31  1  0  0  0  0
 21 31  1  0  0  0  0
 23 32  2  0  0  0  0
 32 33  1  0  0  0  0
 33 34  1  0  0  0  0
 34 35  1  0  0  0  0
 35 36  1  0  0  0  0
 36 37  1  0  0  0  0
 32 37  1  0  0  0  0
 35 38  1  0  0  0  0
M  END
>  <Name>
Azatadine Maleate

>  <CAS>
3978-86-7

>  <Formula>
C28H30N2O8

>  <MolWt>
522.55 

>  <Bioactivity>
Antihistamines such as azatadine appear to compete with histamine for histamine H1- receptor sites on effector cells. The antihistamines antagonize those pharmacological effects of histamine which are mediated through activation of H1- receptor sites and thereby reduce the intensity of allergic reactions and tissue injury response involving histamine release.

>  <Pathways>
Neuroscience

>  <Target>
Cholinergic;Histamine antagonist

>  <Receptor>
cholinergic;Histamine H1 receptor

>  <Reference>
1. Tozzi S, et al. Agents Actions, 1974, 4(4), 264-270.

$$$$
T1157
  Mrv1561503291623562D          

 46 50  0  0  1  0            999 V2000
    0.6954    1.1981    0.0000 C   0  0  2  0  0  0  0  0  0  0  0  0
    0.7304    0.3738    0.0000 O   0  0  0  0  0  0  0  0  0  0  0  0
   -0.0434    0.8309    0.0000 C   0  0  2  0  0  0  0  0  0  0  0  0
   -0.6209    1.4201    0.0000 O   0  0  0  0  0  0  0  0  0  0  0  0
   -0.2390    2.1514    0.0000 C   0  0  0  0  0  0  0  0  0  0  0  0
    0.5745    2.0142    0.0000 C   0  0  0  0  0  0  0  0  0  0  0  0
    1.2208    2.5269    0.0000 C   0  0  0  0  0  0  0  0  0  0  0  0
    1.1000    3.3430    0.0000 C   0  0  0  0  0  0  0  0  0  0  0  0
    1.7463    3.8558    0.0000 C   0  0  0  0  0  0  0  0  0  0  0  0
    1.6254    4.6719    0.0000 C   0  0  1  0  0  0  0  0  0  0  0  0
    2.2717    5.1846    0.0000 C   0  0  0  0  0  0  0  0  0  0  0  0
    3.0389    4.8813    0.0000 C   0  0  0  0  0  0  0  0  0  0  0  0
    3.1598    4.0652    0.0000 C   0  0  0  0  0  0  0  0  0  0  0  0
    3.9270    3.7618    0.0000 C   0  0  0  0  0  0  0  0  0  0  0  0
    4.0479    2.9457    0.0000 C   0  0  1  0  0  0  0  0  0  0  0  0
    4.8151    2.6424    0.0000 O   0  0  0  0  0  0  0  0  0  0  0  0
    4.9360    1.8263    0.0000 C   0  0  1  0  0  0  0  0  0  0  0  0
    5.5823    2.3390    0.0000 O   0  0  0  0  0  0  0  0  0  0  0  0
    6.3495    2.0357    0.0000 C   0  0  0  0  0  0  0  0  0  0  0  0
    6.4704    1.2196    0.0000 C   0  0  2  0  0  0  0  0  0  0  0  0
    5.8241    0.7068    0.0000 C   0  0  0  0  0  0  0  0  0  0  0  0
    5.9450   -0.1092    0.0000 N   0  0  0  0  0  0  0  0  0  0  0  0
    5.2987   -0.6220    0.0000 O   0  0  0  0  0  0  0  0  0  0  0  0
    5.4196   -1.4381    0.0000 C   0  0  0  0  0  0  0  0  0  0  0  0
    5.0569    1.0102    0.0000 C   0  0  0  0  0  0  0  0  0  0  0  0
    7.2376    0.9162    0.0000 C   0  0  0  0  0  0  0  0  0  0  0  0
    6.9958    2.5484    0.0000 C   0  0  0  0  0  0  0  0  0  0  0  0
    7.7630    2.2451    0.0000 C   0  0  0  0  0  0  0  0  0  0  0  0
    8.4093    2.7578    0.0000 C   0  0  0  0  0  0  0  0  0  0  0  0
    8.2884    3.5739    0.0000 C   0  0  0  0  0  0  0  0  0  0  0  0
    9.1765    2.4545    0.0000 C   0  0  0  0  0  0  0  0  0  0  0  0
    6.8749    3.3645    0.0000 C   0  0  0  0  0  0  0  0  0  0  0  0
    4.2897    1.3135    0.0000 C   0  0  0  0  0  0  0  0  0  0  0  0
    3.5225    1.6169    0.0000 C   0  0  1  0  0  0  0  0  0  0  0  0
    2.8762    1.1041    0.0000 O   0  0  0  0  0  0  0  0  0  0  0  0
    2.1089    1.4075    0.0000 C   0  0  0  0  0  0  0  0  0  0  0  0
    1.9881    2.2236    0.0000 O   0  0  0  0  0  0  0  0  0  0  0  0
    1.4626    0.8947    0.0000 C   0  0  2  0  0  0  0  0  0  0  0  0
    1.3314   -0.0815    0.0000 C   0  0  0  0  0  0  0  0  0  0  0  0
    0.5926   -0.4487    0.0000 C   0  0  0  0  0  0  0  0  0  0  0  0
   -0.0948    0.0075    0.0000 C   0  0  1  0  0  0  0  0  0  0  0  0
   -0.8336   -0.3596    0.0000 O   0  0  0  0  0  0  0  0  0  0  0  0
    0.5412   -1.2721    0.0000 C   0  0  0  0  0  0  0  0  0  0  0  0
    3.4016    2.4330    0.0000 C   0  0  0  0  0  0  0  0  0  0  0  0
    3.6852    5.3940    0.0000 C   0  0  0  0  0  0  0  0  0  0  0  0
    0.8582    4.9752    0.0000 C   0  0  0  0  0  0  0  0  0  0  0  0
  1  2  1  6  0  0  0
  1  3  1  0  0  0  0
  3  4  1  1  0  0  0
  4  5  1  0  0  0  0
  5  6  1  0  0  0  0
  1  6  1  0  0  0  0
  6  7  2  0  0  0  0
  7  8  1  4  0  0  0
  8  9  2  0  0  0  0
  9 10  1  0  0  0  0
 10 11  1  0  0  0  0
 11 12  1  0  0  0  0
 12 13  2  0  0  0  0
 13 14  1  0  0  0  0
 14 15  1  0  0  0  0
 15 16  1  0  0  0  0
 17 16  1  1  0  0  0
 17 18  1  0  0  0  0
 18 19  1  0  0  0  0
 19 20  1  0  0  0  0
 20 21  1  0  0  0  0
 21 22  2  0  0  0  0
 22 23  1  0  0  0  0
 23 24  1  0  0  0  0
 21 25  1  0  0  0  0
 17 25  1  0  0  0  0
 20 26  1  1  0  0  0
 19 27  1  0  0  0  0
 27 28  2  0  0  0  0
 28 29  1  0  0  0  0
 29 30  1  0  0  0  0
 29 31  1  0  0  0  0
 27 32  1  0  0  0  0
 17 33  1  0  0  0  0
 33 34  1  0  0  0  0
 34 35  1  0  0  0  0
 35 36  1  0  0  0  0
 36 37  2  0  0  0  0
 36 38  1  0  0  0  0
  1 38  1  0  0  0  0
 38 39  1  6  0  0  0
 39 40  2  0  0  0  0
 40 41  1  0  0  0  0
  3 41  1  0  0  0  0
 41 42  1  1  0  0  0
 40 43  1  0  0  0  0
 34 44  1  1  0  0  0
 15 44  1  1  0  0  0
 12 45  1  0  0  0  0
 10 46  1  6  0  0  0
M  END
>  <Name>
Moxidectin

>  <CAS>
113507-06-5

>  <Formula>
C37H53NO8

>  <MolWt>
639.84 

>  <Bioactivity>
Moxidectin treats and controls some of the most common internal and external parasites by selectively binding to a parasite's glutamate-gated chloride ion channels. These channels are vital to the function of invertebrate nerve and muscle cells;

>  <Pathways>
Microbiology & Virology;

>  <Target>
Antibiotic;GluCl channels

>  <Receptor>
GluCl channels

>  <Reference>
1. Mackintosh CG, et al. Vet Parasitol. 2014 Jan 17;199(1-2):81-92.

$$$$
T1124
  Mrv1561503291623562D          

 29 32  0  0  1  0            999 V2000
    1.5596   -2.8327    0.0000 C   0  0  1  0  0  0  0  0  0  0  0  0
    2.0914   -3.4634    0.0000 C   0  0  1  0  0  0  0  0  0  0  0  0
    2.9035   -3.3182    0.0000 C   0  0  2  0  0  0  0  0  0  0  0  0
    3.1838   -2.5422    0.0000 C   0  0  0  0  0  0  0  0  0  0  0  0
    3.9960   -2.3970    0.0000 C   0  0  0  0  0  0  0  0  0  0  0  0
    4.5278   -3.0277    0.0000 C   0  0  0  0  0  0  0  0  0  0  0  0
    5.3399   -2.8825    0.0000 O   0  0  0  0  0  0  0  0  0  0  0  0
    4.2475   -3.8037    0.0000 C   0  0  0  0  0  0  0  0  0  0  0  0
    3.4354   -3.9489    0.0000 C   0  0  0  0  0  0  0  0  0  0  0  0
    2.6520   -1.9115    0.0000 C   0  0  2  0  0  0  0  0  0  0  0  0
    1.8399   -2.0567    0.0000 C   0  0  0  0  0  0  0  0  0  0  0  0
    2.9323   -1.1356    0.0000 F   0  0  0  0  0  0  0  0  0  0  0  0
    2.6232   -4.0941    0.0000 C   0  0  0  0  0  0  0  0  0  0  0  0
    1.8111   -4.2393    0.0000 C   0  0  2  0  0  0  0  0  0  0  0  0
    0.9990   -4.3845    0.0000 C   0  0  0  0  0  0  0  0  0  0  0  0
    0.4672   -3.7538    0.0000 C   0  0  1  0  0  0  0  0  0  0  0  0
    0.7475   -2.9779    0.0000 C   0  0  1  0  0  0  0  0  0  0  0  0
    0.0962   -2.4715    0.0000 C   0  0  0  0  0  0  0  0  0  0  0  0
   -0.5867   -2.9345    0.0000 C   0  0  1  0  0  0  0  0  0  0  0  0
   -1.3626   -2.6542    0.0000 C   0  0  0  0  0  0  0  0  0  0  0  0
   -0.3574   -3.7270    0.0000 C   0  0  2  0  0  0  0  0  0  0  0  0
   -1.1183   -4.0459    0.0000 C   0  0  0  0  0  0  0  0  0  0  0  0
   -1.7749   -3.5464    0.0000 C   0  0  0  0  0  0  0  0  0  0  0  0
   -2.5357   -3.8652    0.0000 O   0  0  0  0  0  0  0  0  0  0  0  0
   -1.2225   -4.8643    0.0000 O   0  0  0  0  0  0  0  0  0  0  0  0
   -0.4788   -4.5430    0.0000 O   0  0  0  0  0  0  0  0  0  0  0  0
    0.1073   -4.4962    0.0000 C   0  0  0  0  0  0  0  0  0  0  0  0
    2.3429   -4.8700    0.0000 O   0  0  0  0  0  0  0  0  0  0  0  0
    2.1510   -4.2862    0.0000 F   0  0  0  0  0  0  0  0  0  0  0  0
  1  2  1  0  0  0  0
  2  3  1  0  0  0  0
  3  4  1  0  0  0  0
  4  5  2  0  0  0  0
  5  6  1  0  0  0  0
  6  7  2  0  0  0  0
  6  8  1  0  0  0  0
  8  9  2  0  0  0  0
  3  9  1  0  0  0  0
  4 10  1  0  0  0  0
 10 11  1  0  0  0  0
  1 11  1  6  0  0  0
 10 12  1  6  0  0  0
  3 13  1  1  0  0  0
  2 14  1  0  0  0  0
 14 15  1  0  0  0  0
 15 16  1  0  0  0  0
 16 17  1  0  0  0  0
  1 17  1  0  0  0  0
 17 18  1  1  0  0  0
 18 19  1  0  0  0  0
 19 20  1  6  0  0  0
 19 21  1  0  0  0  0
 16 21  1  0  0  0  0
 21 22  1  1  0  0  0
 22 23  1  0  0  0  0
 23 24  1  0  0  0  0
 22 25  2  0  0  0  0
 21 26  1  6  0  0  0
 16 27  1  1  0  0  0
 14 28  1  1  0  0  0
  2 29  1  6  0  0  0
M  END
>  <Name>
Flumethasone

>  <CAS>
2135-17-3

>  <Formula>
C22H28F2O5

>  <MolWt>
410.46 

>  <Bioactivity>
Flumethasone is a glucocorticoid receptor agonist, this complex binds to the nucleus causing a variety of genetic activation and repressions.

>  <Pathways>
Endocrinology/ Hormones

>  <Target>
Glucocorticoid Receptor agonist

>  <Receptor>
Glucocorticoid Receptor

>  <Reference>
1. Sternbauer K, et al. Zentralbl Veterinarmed A, 1998, 45(6-7), 441-443.

$$$$
58970-76-6
  Mrv1561503291623562D          

 22 22  0  0  1  0            999 V2000
    2.8579   -1.6500    0.0000 C   0  0  2  0  0  0  0  0  0  0  0  0
    2.1434   -1.2375    0.0000 N   0  0  0  0  0  0  0  0  0  0  0  0
    1.4289   -1.6500    0.0000 C   0  0  0  0  0  0  0  0  0  0  0  0
    1.4289   -2.4750    0.0000 O   0  0  0  0  0  0  0  0  0  0  0  0
    0.7145   -1.2375    0.0000 C   0  0  1  0  0  0  0  0  0  0  0  0
    0.7145   -0.4125    0.0000 O   0  0  0  0  0  0  0  0  0  0  0  0
   -0.0000   -1.6500    0.0000 C   0  0  2  0  0  0  0  0  0  0  0  0
   -0.0000   -2.4750    0.0000 N   0  0  0  0  0  0  0  0  0  0  0  0
   -0.7145   -1.2375    0.0000 C   0  0  0  0  0  0  0  0  0  0  0  0
   -1.4289   -1.6500    0.0000 C   0  0  0  0  0  0  0  0  0  0  0  0
   -1.4289   -2.4750    0.0000 C   0  0  0  0  0  0  0  0  0  0  0  0
   -2.1434   -2.8875    0.0000 C   0  0  0  0  0  0  0  0  0  0  0  0
   -2.8579   -2.4750    0.0000 C   0  0  0  0  0  0  0  0  0  0  0  0
   -2.8579   -1.6500    0.0000 C   0  0  0  0  0  0  0  0  0  0  0  0
   -2.1434   -1.2375    0.0000 C   0  0  0  0  0  0  0  0  0  0  0  0
    3.5724   -1.2375    0.0000 C   0  0  0  0  0  0  0  0  0  0  0  0
    4.2868   -1.6500    0.0000 C   0  0  0  0  0  0  0  0  0  0  0  0
    5.0013   -1.2375    0.0000 C   0  0  0  0  0  0  0  0  0  0  0  0
    4.2868   -2.4750    0.0000 C   0  0  0  0  0  0  0  0  0  0  0  0
    2.8579   -2.4750    0.0000 C   0  0  0  0  0  0  0  0  0  0  0  0
    3.5724   -2.8875    0.0000 O   0  0  0  0  0  0  0  0  0  0  0  0
    2.1434   -2.8875    0.0000 O   0  0  0  0  0  0  0  0  0  0  0  0
  1  2  1  6  0  0  0
  2  3  1  0  0  0  0
  3  4  2  0  0  0  0
  3  5  1  0  0  0  0
  5  6  1  6  0  0  0
  5  7  1  0  0  0  0
  7  8  1  6  0  0  0
  7  9  1  0  0  0  0
  9 10  1  0  0  0  0
 10 11  2  0  0  0  0
 11 12  1  0  0  0  0
 12 13  2  0  0  0  0
 13 14  1  0  0  0  0
 14 15  2  0  0  0  0
 10 15  1  0  0  0  0
  1 16  1  0  0  0  0
 16 17  1  0  0  0  0
 17 18  1  0  0  0  0
 17 19  1  0  0  0  0
  1 20  1  0  0  0  0
 20 21  1  0  0  0  0
 20 22  2  0  0  0  0
M  END
>  <Name>
Ubenimex

>  <CAS>
58970-76-6

>  <Formula>
C16H24N2O4

>  <MolWt>
308.37 

>  <Bioactivity>
Bestatin is a competitive protease inhibitor. It is an inhibitor of aminopeptidase B, leukotriene A4 hydrolase, aminopeptidase N. It is being studied for use in the treatment of acute myelocytic leukemia. 

>  <Pathways>
Proteases/Proteasome

>  <Target>
Protease inhibitor

>  <Receptor>
APN;LTA4H

>  <Reference>
1. Sekine K, et al. Leukemia, 1999, 13(5), 729-734.

$$$$
21535-47-7
  Mrv1561503291623562D          

 22 23  0  0  0  0            999 V2000
    0.4125    0.0000    0.0000 H   0  3  0  0  0  0  0  0  0  0  0  0
    6.3334   -0.0907    0.0000 C   0  0  0  0  0  0  0  0  0  0  0  0
    6.9382    0.4704    0.0000 C   0  0  0  0  0  0  0  0  0  0  0  0
    6.7546    1.2748    0.0000 C   0  0  0  0  0  0  0  0  0  0  0  0
    5.9663    1.5179    0.0000 C   0  0  0  0  0  0  0  0  0  0  0  0
    5.3615    0.9568    0.0000 C   0  0  0  0  0  0  0  0  0  0  0  0
    5.5451    0.1525    0.0000 C   0  0  0  0  0  0  0  0  0  0  0  0
    5.0307   -0.4925    0.0000 C   0  0  0  0  0  0  0  0  0  0  0  0
    4.2057   -0.4925    0.0000 N   0  0  0  0  0  0  0  0  0  0  0  0
    3.6913    0.1525    0.0000 C   0  0  0  0  0  0  0  0  0  0  0  0
    3.8749    0.9568    0.0000 C   0  0  0  0  0  0  0  0  0  0  0  0
    4.6182    1.3147    0.0000 C   0  0  0  0  0  0  0  0  0  0  0  0
    3.2701    1.5179    0.0000 C   0  0  0  0  0  0  0  0  0  0  0  0
    2.4818    1.2748    0.0000 C   0  0  0  0  0  0  0  0  0  0  0  0
    2.2982    0.4704    0.0000 C   0  0  0  0  0  0  0  0  0  0  0  0
    2.9030   -0.0907    0.0000 C   0  0  0  0  0  0  0  0  0  0  0  0
    3.7932   -1.2070    0.0000 C   0  0  0  0  0  0  0  0  0  0  0  0
    4.2057   -1.9215    0.0000 C   0  0  0  0  0  0  0  0  0  0  0  0
    5.0307   -1.9215    0.0000 N   0  0  0  0  0  0  0  0  0  0  0  0
    5.4432   -1.2070    0.0000 C   0  0  0  0  0  0  0  0  0  0  0  0
    5.4432   -2.6360    0.0000 C   0  0  0  0  0  0  0  0  0  0  0  0
   -0.4125    0.0000    0.0000 Cl  0  5  0  0  0  0  0  0  0  0  0  0
  2  3  2  0  0  0  0
  3  4  1  0  0  0  0
  4  5  2  0  0  0  0
  5  6  1  0  0  0  0
  6  7  2  0  0  0  0
  2  7  1  0  0  0  0
  7  8  1  0  0  0  0
  8  9  1  0  0  0  0
  9 10  1  0  0  0  0
 10 11  2  0  0  0  0
 11 12  1  0  0  0  0
  6 12  1  0  0  0  0
 11 13  1  0  0  0  0
 13 14  2  0  0  0  0
 14 15  1  0  0  0  0
 15 16  2  0  0  0  0
 10 16  1  0  0  0  0
  9 17  1  0  0  0  0
 17 18  1  0  0  0  0
 18 19  1  0  0  0  0
 19 20  1  0  0  0  0
  8 20  1  0  0  0  0
 19 21  1  0  0  0  0
M  CHG  2   1   1  22  -1
M  END
>  <Name>
Mianserin HCl

>  <CAS>
21535-47-7

>  <Formula>
C18H21ClN2

>  <MolWt>
300.83 

>  <Bioactivity>
A tetracyclic compound with antidepressant effects. It may cause drowsiness and hematological problems. Its mechanism of therapeutic action is not well understood, although it apparently blocks alpha-adrenergic, histamine H1, and some types of serotonin receptors. 

>  <Pathways>
Neuroscience

>  <Target>
Noradrenaline uptake inhibitor;Serotonin uptake inhibitor;Histamine antagonist;Opioid Receptor agonist;Dopamine Receptor ;Adrenergic Receptor antagonist ;5-HT receptor antagonist;Dopamine uptake inhibitor

>  <Receptor>
Sodium-dependent noradrenaline transporter;Sodium-dependent serotonin transporter;Histamine receptor;Kappa-type opioid receptor;Dopamine receptor;Adrenergic receptor;5-HT receptor ;Sodium-dependent dopamine transporter

>  <Reference>
1. Dekeyne A, Millan MJ. Neuropharmacology. 2006 Sep;51(4):718-26.

$$$$
T0132
  Mrv1561503291623562D          

 42 48  0  0  1  0            999 V2000
    4.0668    2.3479    0.0000 C   0  0  2  0  0  0  0  0  0  0  0  0
    3.3523    1.9354    0.0000 C   0  0  0  0  0  0  0  0  0  0  0  0
    3.3523    1.1104    0.0000 C   0  0  0  0  0  0  0  0  0  0  0  0
    4.0668    0.6979    0.0000 C   0  0  1  0  0  0  0  0  0  0  0  0
    4.0668   -0.1271    0.0000 O   0  0  0  0  0  0  0  0  0  0  0  0
    4.7812   -0.5396    0.0000 C   0  0  2  0  0  0  0  0  0  0  0  0
    5.4957   -0.1271    0.0000 O   0  0  0  0  0  0  0  0  0  0  0  0
    6.2102   -0.5396    0.0000 C   0  0  1  0  0  0  0  0  0  0  0  0
    6.2102   -1.3646    0.0000 C   0  0  1  0  0  0  0  0  0  0  0  0
    6.9246   -1.7771    0.0000 O   0  0  0  0  0  0  0  0  0  0  0  0
    7.6391   -1.3646    0.0000 C   0  0  2  0  0  0  0  0  0  0  0  0
    8.3536   -1.7771    0.0000 C   0  0  0  0  0  0  0  0  0  0  0  0
    7.6391   -0.5396    0.0000 O   0  0  0  0  0  0  0  0  0  0  0  0
    6.9246   -0.1271    0.0000 C   0  0  0  0  0  0  0  0  0  0  0  0
    5.4957   -1.7771    0.0000 C   0  0  1  0  0  0  0  0  0  0  0  0
    4.7812   -1.3646    0.0000 C   0  0  1  0  0  0  0  0  0  0  0  0
    4.0668   -1.7771    0.0000 O   0  0  0  0  0  0  0  0  0  0  0  0
    5.4957   -2.6021    0.0000 O   0  0  0  0  0  0  0  0  0  0  0  0
    4.7812    1.1104    0.0000 C   0  0  2  0  0  0  0  0  0  0  0  0
    4.7812    1.9354    0.0000 C   0  0  2  0  0  0  0  0  0  0  0  0
    5.5658    2.1904    0.0000 C   0  0  0  0  0  0  0  0  0  0  0  0
    6.0508    1.5229    0.0000 O   0  0  0  0  0  0  0  0  0  0  0  0
    5.5658    0.8555    0.0000 C   0  0  0  0  0  0  0  0  0  0  0  0
    5.8208    2.9750    0.0000 O   0  0  0  0  0  0  0  0  0  0  0  0
    2.6378    0.6979    0.0000 C   0  0  0  0  0  0  0  0  0  0  0  0
    1.9233    1.1104    0.0000 C   0  0  0  0  0  0  0  0  0  0  0  0
    1.1387    0.8555    0.0000 O   0  0  0  0  0  0  0  0  0  0  0  0
    0.6538    1.5229    0.0000 C   0  0  0  0  0  0  0  0  0  0  0  0
    1.1387    2.1904    0.0000 O   0  0  0  0  0  0  0  0  0  0  0  0
    1.9233    1.9354    0.0000 C   0  0  0  0  0  0  0  0  0  0  0  0
    2.6378    2.3479    0.0000 C   0  0  0  0  0  0  0  0  0  0  0  0
    4.0668    3.1729    0.0000 C   0  0  0  0  0  0  0  0  0  0  0  0
    3.3523    3.5854    0.0000 C   0  0  0  0  0  0  0  0  0  0  0  0
    3.3523    4.4104    0.0000 C   0  0  0  0  0  0  0  0  0  0  0  0
    4.0668    4.8229    0.0000 C   0  0  0  0  0  0  0  0  0  0  0  0
    4.0668    5.6479    0.0000 O   0  0  0  0  0  0  0  0  0  0  0  0
    4.7812    4.4104    0.0000 C   0  0  0  0  0  0  0  0  0  0  0  0
    4.7812    3.5854    0.0000 C   0  0  0  0  0  0  0  0  0  0  0  0
    5.4957    4.8229    0.0000 O   0  0  0  0  0  0  0  0  0  0  0  0
    6.2102    4.4104    0.0000 C   0  0  0  0  0  0  0  0  0  0  0  0
    2.6378    4.8229    0.0000 O   0  0  0  0  0  0  0  0  0  0  0  0
    2.6378    5.6479    0.0000 C   0  0  0  0  0  0  0  0  0  0  0  0
  1  2  1  0  0  0  0
  2  3  2  0  0  0  0
  3  4  1  0  0  0  0
  4  5  1  6  0  0  0
  6  5  1  6  0  0  0
  6  7  1  0  0  0  0
  8  7  1  6  0  0  0
  8  9  1  0  0  0  0
  9 10  1  1  0  0  0
 10 11  1  0  0  0  0
 11 12  1  1  0  0  0
 11 13  1  0  0  0  0
 13 14  1  0  0  0  0
  8 14  1  0  0  0  0
  9 15  1  0  0  0  0
 15 16  1  0  0  0  0
  6 16  1  0  0  0  0
 16 17  1  1  0  0  0
 15 18  1  6  0  0  0
  4 19  1  0  0  0  0
 19 20  1  0  0  0  0
  1 20  1  0  0  0  0
 20 21  1  1  0  0  0
 21 22  1  0  0  0  0
 22 23  1  0  0  0  0
 19 23  1  6  0  0  0
 21 24  2  0  0  0  0
  3 25  1  0  0  0  0
 25 26  2  0  0  0  0
 26 27  1  0  0  0  0
 27 28  1  0  0  0  0
 28 29  1  0  0  0  0
 29 30  1  0  0  0  0
 26 30  1  0  0  0  0
 30 31  2  0  0  0  0
  2 31  1  0  0  0  0
  1 32  1  1  0  0  0
 32 33  2  0  0  0  0
 33 34  1  0  0  0  0
 34 35  2  0  0  0  0
 35 36  1  0  0  0  0
 35 37  1  0  0  0  0
 37 38  2  0  0  0  0
 32 38  1  0  0  0  0
 37 39  1  0  0  0  0
 39 40  1  0  0  0  0
 34 41  1  0  0  0  0
 41 42  1  0  0  0  0
M  END
>  <Name>
Etoposide

>  <CAS>
33419-42-0

>  <Formula>
C29H32O13

>  <MolWt>
588.56 

>  <Bioactivity>
Etoposide is a semisynthetic derivative of podophyllotoxin, which inhibits DNA synthesis via topoisomerase II inhibition activity.

>  <Pathways>
DNA Damage/DNA Repair;Immunology/Inflammation

>  <Target>
Topoisomerase inhibitor; MRP inhibitor

>  <Receptor>
Topoisomerase II; MRP

>  <Reference>
1. Berman HM, et al. Nucleic Acids Res. 2000 Jan 1; 28(1):235-42. 

$$$$
T3043
  Mrv1561503291623562D          

 28 30  0  0  0  0            999 V2000
    0.9149   -3.2241    0.0000 C   0  0  0  0  0  0  0  0  0  0  0  0
    0.1612   -3.5597    0.0000 C   0  0  0  0  0  0  0  0  0  0  0  0
   -0.3908   -2.9466    0.0000 C   0  0  0  0  0  0  0  0  0  0  0  0
    0.0217   -2.2321    0.0000 C   0  0  0  0  0  0  0  0  0  0  0  0
    0.8287   -2.4037    0.0000 C   0  0  0  0  0  0  0  0  0  0  0  0
   -0.3139   -1.4785    0.0000 C   0  0  0  0  0  0  0  0  0  0  0  0
   -1.1343   -1.3922    0.0000 C   0  0  0  0  0  0  0  0  0  0  0  0
   -1.4699   -0.6386    0.0000 C   0  0  0  0  0  0  0  0  0  0  0  0
   -1.8054    0.1151    0.0000 N   0  0  0  0  0  0  0  0  0  0  0  0
    0.1711   -0.8110    0.0000 N   0  0  0  0  0  0  0  0  0  0  0  0
   -0.0839   -0.0264    0.0000 C   0  0  0  0  0  0  0  0  0  0  0  0
    0.5836    0.4585    0.0000 C   0  0  0  0  0  0  0  0  0  0  0  0
    1.2510   -0.0264    0.0000 C   0  0  0  0  0  0  0  0  0  0  0  0
    0.9961   -0.8110    0.0000 N   0  0  0  0  0  0  0  0  0  0  0  0
    0.5836    1.2835    0.0000 C   0  0  0  0  0  0  0  0  0  0  0  0
   -0.1309    1.6960    0.0000 C   0  0  0  0  0  0  0  0  0  0  0  0
   -0.9155    1.4411    0.0000 C   0  0  0  0  0  0  0  0  0  0  0  0
   -1.4004    2.1085    0.0000 C   0  0  0  0  0  0  0  0  0  0  0  0
   -0.9155    2.7760    0.0000 N   0  0  0  0  0  0  0  0  0  0  0  0
   -0.1309    2.5210    0.0000 C   0  0  0  0  0  0  0  0  0  0  0  0
    0.5836    2.9335    0.0000 N   0  0  0  0  0  0  0  0  0  0  0  0
    1.2980    2.5210    0.0000 C   0  0  0  0  0  0  0  0  0  0  0  0
    1.2980    1.6960    0.0000 N   0  0  0  0  0  0  0  0  0  0  0  0
    4.0088   -0.8250    0.0000 O   0  0  0  0  0  0  0  0  0  0  0  0
    4.0088    0.0000    0.0000 P   0  0  0  0  0  0  0  0  0  0  0  0
    4.0088    0.8250    0.0000 O   0  0  0  0  0  0  0  0  0  0  0  0
    4.8338   -0.0000    0.0000 O   0  0  0  0  0  0  0  0  0  0  0  0
    3.1838    0.0000    0.0000 O   0  0  0  0  0  0  0  0  0  0  0  0
  1  2  1  0  0  0  0
  2  3  1  0  0  0  0
  3  4  1  0  0  0  0
  4  5  1  0  0  0  0
  1  5  1  0  0  0  0
  4  6  1  0  0  0  0
  6  7  1  0  0  0  0
  7  8  1  0  0  0  0
  8  9  3  0  0  0  0
  6 10  1  0  0  0  0
 10 11  1  0  0  0  0
 11 12  2  0  0  0  0
 12 13  1  0  0  0  0
 13 14  2  0  0  0  0
 10 14  1  0  0  0  0
 12 15  1  0  0  0  0
 15 16  2  0  0  0  0
 16 17  1  0  0  0  0
 17 18  2  0  0  0  0
 18 19  1  0  0  0  0
 19 20  1  0  0  0  0
 16 20  1  0  0  0  0
 20 21  2  0  0  0  0
 21 22  1  0  0  0  0
 22 23  2  0  0  0  0
 15 23  1  0  0  0  0
 24 25  1  0  0  0  0
 25 26  2  0  0  0  0
 25 27  1  0  0  0  0
 25 28  1  0  0  0  0
M  END
>  <Name>
Ruxolitinib (INCB-18424) phosphate

>  <CAS>
1092939-17-7

>  <Formula>
C17H21N6O4P

>  <MolWt>
404.36 

>  <Bioactivity>
Ruxolitinib phosphate(INCB018424 phosphate) is the first potent, selective, JAK1/2 inhibitor to enter the clinic with IC50 of 3.3 nM/2.8 nM, >130-fold selectivity for JAK1/2 versus JAK3.

>  <Pathways>
JAK/STAT Signaling

>  <Target>
JAK inhibitor

>  <Receptor>
JAK1/2

>  <Reference>
1. Quintas-Cardama A, et al. Blood, 2010, 115(15), 3109-3117.

$$$$
84-17-3
  Mrv1561503291623562D          

 20 21  0  0  0  0            999 V2000
    2.1434   -3.7125    0.0000 C   0  0  0  0  0  0  0  0  0  0  0  0
    1.4289   -4.1250    0.0000 C   0  0  0  0  0  0  0  0  0  0  0  0
    1.4289   -4.9500    0.0000 C   0  0  0  0  0  0  0  0  0  0  0  0
    2.1434   -5.3625    0.0000 C   0  0  0  0  0  0  0  0  0  0  0  0
    2.1434   -6.1875    0.0000 C   0  0  0  0  0  0  0  0  0  0  0  0
    2.8579   -6.6000    0.0000 C   0  0  0  0  0  0  0  0  0  0  0  0
    2.8579   -7.4250    0.0000 C   0  0  0  0  0  0  0  0  0  0  0  0
    2.1434   -7.8375    0.0000 C   0  0  0  0  0  0  0  0  0  0  0  0
    2.1434   -8.6625    0.0000 O   0  0  0  0  0  0  0  0  0  0  0  0
    1.4289   -7.4250    0.0000 C   0  0  0  0  0  0  0  0  0  0  0  0
    1.4289   -6.6000    0.0000 C   0  0  0  0  0  0  0  0  0  0  0  0
    2.8579   -4.9500    0.0000 C   0  0  0  0  0  0  0  0  0  0  0  0
    3.5724   -5.3625    0.0000 C   0  0  0  0  0  0  0  0  0  0  0  0
    0.7145   -5.3625    0.0000 C   0  0  0  0  0  0  0  0  0  0  0  0
   -0.0000   -4.9500    0.0000 C   0  0  0  0  0  0  0  0  0  0  0  0
    0.7145   -3.7125    0.0000 C   0  0  0  0  0  0  0  0  0  0  0  0
    0.7145   -2.8875    0.0000 C   0  0  0  0  0  0  0  0  0  0  0  0
    1.4289   -2.4750    0.0000 C   0  0  0  0  0  0  0  0  0  0  0  0
    2.1434   -2.8875    0.0000 C   0  0  0  0  0  0  0  0  0  0  0  0
    1.4289   -1.6500    0.0000 O   0  0  0  0  0  0  0  0  0  0  0  0
  1  2  2  0  0  0  0
  2  3  1  0  0  0  0
  3  4  1  0  0  0  0
  4  5  1  0  0  0  0
  5  6  2  0  0  0  0
  6  7  1  0  0  0  0
  7  8  2  0  0  0  0
  8  9  1  0  0  0  0
  8 10  1  0  0  0  0
 10 11  2  0  0  0  0
  5 11  1  0  0  0  0
  4 12  2  0  0  0  0
 12 13  1  0  0  0  0
  3 14  2  0  0  0  0
 14 15  1  0  0  0  0
  2 16  1  0  0  0  0
 16 17  2  0  0  0  0
 17 18  1  0  0  0  0
 18 19  2  0  0  0  0
  1 19  1  0  0  0  0
 18 20  1  0  0  0  0
M  END
>  <Name>
Dienestrol

>  <CAS>
84-17-3

>  <Formula>
C18H18O2

>  <MolWt>
266.34 

>  <Bioactivity>
Dienestrol is a synthetic, non-steroidal estrogen. It is an estrogen receptor agonist. Estrogens work partly by increasing a normal clear discharge from the vagina and making the vulva and urethra healthy.

>  <Pathways>
Endocrinology/ Hormones

>  <Target>
Estrogen/Progestogen Receptor agonist

>  <Receptor>
Estrogen receptor

>  <Reference>
1. Juriansz RL, et al. Cancer Res. 1988 Jan 1;48(1):14-8. 

$$$$
T1241
  Mrv1561503291623562D          

 15 15  0  0  0  0            999 V2000
    1.4289    2.4750    0.0000 C   0  0  0  0  0  0  0  0  0  0  0  0
    0.7145    2.0625    0.0000 N   0  0  0  0  0  0  0  0  0  0  0  0
    0.7145    1.2375    0.0000 C   0  0  0  0  0  0  0  0  0  0  0  0
    1.4289    0.8250    0.0000 N   0  0  0  0  0  0  0  0  0  0  0  0
    1.4289    0.0000    0.0000 C   0  0  0  0  0  0  0  0  0  0  0  0
    0.7145   -0.4125    0.0000 N   0  0  0  0  0  0  0  0  0  0  0  0
    0.0000   -0.0000    0.0000 C   0  0  0  0  0  0  0  0  0  0  0  0
    0.0000    0.8250    0.0000 N   0  0  0  0  0  0  0  0  0  0  0  0
   -0.7145   -0.4125    0.0000 N   0  0  0  0  0  0  0  0  0  0  0  0
   -0.7145   -1.2375    0.0000 C   0  0  0  0  0  0  0  0  0  0  0  0
   -1.4289    0.0000    0.0000 C   0  0  0  0  0  0  0  0  0  0  0  0
    2.1434   -0.4125    0.0000 N   0  0  0  0  0  0  0  0  0  0  0  0
    2.1434   -1.2375    0.0000 C   0  0  0  0  0  0  0  0  0  0  0  0
    2.8579    0.0000    0.0000 C   0  0  0  0  0  0  0  0  0  0  0  0
   -0.0000    2.4750    0.0000 C   0  0  0  0  0  0  0  0  0  0  0  0
  1  2  1  0  0  0  0
  2  3  1  0  0  0  0
  3  4  2  0  0  0  0
  4  5  1  0  0  0  0
  5  6  2  0  0  0  0
  6  7  1  0  0  0  0
  7  8  2  0  0  0  0
  3  8  1  0  0  0  0
  7  9  1  0  0  0  0
  9 10  1  0  0  0  0
  9 11  1  0  0  0  0
  5 12  1  0  0  0  0
 12 13  1  0  0  0  0
 12 14  1  0  0  0  0
  2 15  1  0  0  0  0
M  END
>  <Name>
Altretamine

>  <CAS>
645-05-6

>  <Formula>
C9H18N6

>  <MolWt>
210.28 

>  <Bioactivity>
Altretamine is an Alkylating Drug. The mechanism of action of altretamine is as an Alkylating Activity.

>  <Pathways>
DNA Damage/DNA Repair

>  <Target>
DNA Alkylating

>  <Receptor>
DNA Alkylating

>  <Reference>
1. Keldsen N, et al. Gynecol Oncol. 2003 Feb;88(2):118-22.

$$$$
1225-55-4
  Mrv1561503291623562D          

 22 22  0  0  0  0            999 V2000
    0.4125    0.0000    0.0000 H   0  3  0  0  0  0  0  0  0  0  0  0
    3.8749    1.4779    0.0000 C   0  0  0  0  0  0  0  0  0  0  0  0
    3.2701    2.0390    0.0000 C   0  0  0  0  0  0  0  0  0  0  0  0
    2.4818    1.7959    0.0000 C   0  0  0  0  0  0  0  0  0  0  0  0
    2.2982    0.9915    0.0000 C   0  0  0  0  0  0  0  0  0  0  0  0
    2.9030    0.4304    0.0000 C   0  0  0  0  0  0  0  0  0  0  0  0
    3.6913    0.6736    0.0000 C   0  0  0  0  0  0  0  0  0  0  0  0
    4.3730    0.2088    0.0000 C   0  0  0  0  0  0  0  0  0  0  0  0
    4.4346   -0.6139    0.0000 C   0  0  0  0  0  0  0  0  0  0  0  0
    3.8299   -1.1750    0.0000 C   0  0  0  0  0  0  0  0  0  0  0  0
    3.0141   -1.0520    0.0000 C   0  0  0  0  0  0  0  0  0  0  0  0
    2.6016   -0.3376    0.0000 C   0  0  0  0  0  0  0  0  0  0  0  0
    4.0134   -1.9793    0.0000 C   0  0  0  0  0  0  0  0  0  0  0  0
    4.8018   -2.2225    0.0000 C   0  0  0  0  0  0  0  0  0  0  0  0
    5.4066   -1.6614    0.0000 C   0  0  0  0  0  0  0  0  0  0  0  0
    5.2230   -0.8570    0.0000 C   0  0  0  0  0  0  0  0  0  0  0  0
    5.0874    0.6213    0.0000 C   0  0  0  0  0  0  0  0  0  0  0  0
    5.8019    0.2088    0.0000 C   0  0  0  0  0  0  0  0  0  0  0  0
    6.5164    0.6213    0.0000 C   0  0  0  0  0  0  0  0  0  0  0  0
    7.2309    0.2088    0.0000 N   0  0  0  0  0  0  0  0  0  0  0  0
    7.9453    0.6213    0.0000 C   0  0  0  0  0  0  0  0  0  0  0  0
   -0.4125    0.0000    0.0000 Cl  0  5  0  0  0  0  0  0  0  0  0  0
  2  3  2  0  0  0  0
  3  4  1  0  0  0  0
  4  5  2  0  0  0  0
  5  6  1  0  0  0  0
  6  7  2  0  0  0  0
  2  7  1  0  0  0  0
  7  8  1  0  0  0  0
  8  9  1  0  0  0  0
  9 10  2  0  0  0  0
 10 11  1  0  0  0  0
 11 12  2  0  0  0  0
  6 12  1  0  0  0  0
 10 13  1  0  0  0  0
 13 14  2  0  0  0  0
 14 15  1  0  0  0  0
 15 16  2  0  0  0  0
  9 16  1  0  0  0  0
  8 17  1  0  0  0  0
 17 18  1  0  0  0  0
 18 19  1  0  0  0  0
 19 20  1  0  0  0  0
 20 21  1  0  0  0  0
M  CHG  2   1   1  22  -1
M  END
>  <Name>
Protriptyline HCl

>  <CAS>
1225-55-4

>  <Formula>
C19H21N.HCl

>  <MolWt>
299.84 

>  <Bioactivity>
Protriptyline hydrochloride is a dibenzocycloheptene-derivative tricyclic antidepressant (TCA). TCAs are structurally similar to phenothiazines. They contain a tricyclic ring system with an alkyl amine substituent on the central ring. In non-depressed individuals, protriptyline does not affect mood or arousal, but may cause sedation. In depressed individuals, protriptyline exerts a positive effect on mood. TCAs are potent inhibitors of serotonin and norepinephrine reuptake. In addition, TCAs down-regulate cerebral cortical ?-adrenergic receptors and sensitize post-synaptic serotonergic receptors with chronic use. The antidepressant effects of TCAs are thought to be due to an overall increase in serotonergic neurotransmission. TCAs also block histamine H1 receptors, ?1-adrenergic receptors and muscarinic receptors, which accounts for their sedative, hypotensive and anticholinergic effects (e.g. blurred vision, dry mouth, constipation, urinary retention), respectively. See toxicity section below for a complete listing of side effects. Protriptyline may be used for the treatment of depression.

>  <Pathways>
Neuroscience

>  <Target>
Serotonin uptake inhibitor

>  <Receptor>
Sodium-dependent serotonin transporter

>  <Reference>
1. McDougle CJ, et al. Mol Psychiatry. 1998 May;3(3):270-3.

$$$$
152-43-2
  Mrv1561503291623562D          

 27 31  0  0  1  0            999 V2000
    3.6826    0.6076    0.0000 C   0  0  1  0  0  0  0  0  0  0  0  0
    3.9629   -0.1684    0.0000 C   0  0  1  0  0  0  0  0  0  0  0  0
    4.7875   -0.1416    0.0000 C   0  0  1  0  0  0  0  0  0  0  0  0
    5.5996   -0.2868    0.0000 C   0  0  0  0  0  0  0  0  0  0  0  0
    6.4118   -0.4320    0.0000 C   0  0  0  0  0  0  0  0  0  0  0  0
    4.7280   -0.9644    0.0000 O   0  0  0  0  0  0  0  0  0  0  0  0
    5.0168    0.6509    0.0000 C   0  0  0  0  0  0  0  0  0  0  0  0
    4.3340    1.1139    0.0000 C   0  0  0  0  0  0  0  0  0  0  0  0
    3.4311   -0.7991    0.0000 C   0  0  0  0  0  0  0  0  0  0  0  0
    2.6190   -0.6539    0.0000 C   0  0  0  0  0  0  0  0  0  0  0  0
    2.3387    0.1221    0.0000 C   0  0  1  0  0  0  0  0  0  0  0  0
    2.8705    0.7528    0.0000 C   0  0  1  0  0  0  0  0  0  0  0  0
    2.5902    1.5287    0.0000 C   0  0  0  0  0  0  0  0  0  0  0  0
    1.7781    1.6739    0.0000 C   0  0  0  0  0  0  0  0  0  0  0  0
    1.2463    1.0432    0.0000 C   0  0  0  0  0  0  0  0  0  0  0  0
    1.5266    0.2673    0.0000 C   0  0  0  0  0  0  0  0  0  0  0  0
    0.9948   -0.3634    0.0000 C   0  0  0  0  0  0  0  0  0  0  0  0
    0.1827   -0.2182    0.0000 C   0  0  0  0  0  0  0  0  0  0  0  0
   -0.0976    0.5577    0.0000 C   0  0  0  0  0  0  0  0  0  0  0  0
    0.4342    1.1884    0.0000 C   0  0  0  0  0  0  0  0  0  0  0  0
   -0.9098    0.7029    0.0000 O   0  0  0  0  0  0  0  0  0  0  0  0
   -1.4416    0.0722    0.0000 C   0  0  0  0  0  0  0  0  0  0  0  0
   -1.2439   -0.7287    0.0000 C   0  0  0  0  0  0  0  0  0  0  0  0
   -1.9446   -1.1642    0.0000 C   0  0  0  0  0  0  0  0  0  0  0  0
   -2.5753   -0.6324    0.0000 C   0  0  0  0  0  0  0  0  0  0  0  0
   -2.2644    0.1318    0.0000 C   0  0  0  0  0  0  0  0  0  0  0  0
    4.3228   -0.9107    0.0000 C   0  0  0  0  0  0  0  0  0  0  0  0
  1  2  1  0  0  0  0
  2  3  1  0  0  0  0
  3  4  1  1  0  0  0
  4  5  3  0  0  0  0
  3  6  1  6  0  0  0
  3  7  1  0  0  0  0
  7  8  1  0  0  0  0
  1  8  1  6  0  0  0
  2  9  1  0  0  0  0
  9 10  1  0  0  0  0
 10 11  1  0  0  0  0
 11 12  1  0  0  0  0
  1 12  1  0  0  0  0
 12 13  1  1  0  0  0
 13 14  1  0  0  0  0
 14 15  1  0  0  0  0
 15 16  2  0  0  0  0
 11 16  1  6  0  0  0
 16 17  1  0  0  0  0
 17 18  2  0  0  0  0
 18 19  1  0  0  0  0
 19 20  2  0  0  0  0
 15 20  1  0  0  0  0
 19 21  1  0  0  0  0
 21 22  1  0  0  0  0
 22 23  1  0  0  0  0
 23 24  1  0  0  0  0
 24 25  1  0  0  0  0
 25 26  1  0  0  0  0
 22 26  1  0  0  0  0
  2 27  1  6  0  0  0
M  END
>  <Name>
Quinestrol

>  <CAS>
152-43-2

>  <Formula>
C25H32O2

>  <MolWt>
364.53 

>  <Bioactivity>
The 3-cyclopentyl ether of ETHINYL ESTRADIOL. After gastrointestinal absorption, it is stored in ADIPOSE TISSUE, slowly released, and metabolized principally to the parent compound.

>  <Pathways>
Endocrinology/ Hormones

>  <Target>
Estrogen/Progestogen Receptor agonist

>  <Receptor>
Estrogen Receptor

>  <Reference>
1. Shyu C, et al. Toxicol Appl Pharmacol. 2010 Nov 12. 

$$$$
57808-66-9
  Mrv1561503291623562D          

 30 34  0  0  0  0            999 V2000
    3.4122   -5.2464    0.0000 C   0  0  0  0  0  0  0  0  0  0  0  0
    4.2327   -5.3327    0.0000 C   0  0  0  0  0  0  0  0  0  0  0  0
    4.5682   -6.0863    0.0000 C   0  0  0  0  0  0  0  0  0  0  0  0
    4.0833   -6.7538    0.0000 C   0  0  0  0  0  0  0  0  0  0  0  0
    3.2628   -6.6675    0.0000 C   0  0  0  0  0  0  0  0  0  0  0  0
    2.9273   -5.9139    0.0000 C   0  0  0  0  0  0  0  0  0  0  0  0
    2.1068   -6.0001    0.0000 N   0  0  0  0  0  0  0  0  0  0  0  0
    1.5547   -5.3870    0.0000 C   0  0  0  0  0  0  0  0  0  0  0  0
    0.7478   -5.5585    0.0000 C   0  0  0  0  0  0  0  0  0  0  0  0
    0.1957   -4.9454    0.0000 C   0  0  0  0  0  0  0  0  0  0  0  0
    0.4507   -4.1608    0.0000 N   0  0  0  0  0  0  0  0  0  0  0  0
   -0.1014   -3.5477    0.0000 C   0  0  0  0  0  0  0  0  0  0  0  0
    0.1536   -2.7631    0.0000 C   0  0  0  0  0  0  0  0  0  0  0  0
   -0.3984   -2.1500    0.0000 C   0  0  0  0  0  0  0  0  0  0  0  0
   -0.1435   -1.3654    0.0000 N   0  0  0  0  0  0  0  0  0  0  0  0
    0.6411   -1.1104    0.0000 C   0  0  0  0  0  0  0  0  0  0  0  0
    0.6411   -0.2854    0.0000 C   0  0  0  0  0  0  0  0  0  0  0  0
    1.3556    0.1271    0.0000 C   0  0  0  0  0  0  0  0  0  0  0  0
    2.0701   -0.2854    0.0000 C   0  0  0  0  0  0  0  0  0  0  0  0
    2.0701   -1.1104    0.0000 C   0  0  0  0  0  0  0  0  0  0  0  0
    1.3556   -1.5229    0.0000 C   0  0  0  0  0  0  0  0  0  0  0  0
   -0.1435   -0.0305    0.0000 N   0  0  0  0  0  0  0  0  0  0  0  0
   -0.6284   -0.6979    0.0000 C   0  0  0  0  0  0  0  0  0  0  0  0
   -1.4534   -0.6979    0.0000 O   0  0  0  0  0  0  0  0  0  0  0  0
    1.2577   -3.9893    0.0000 C   0  0  0  0  0  0  0  0  0  0  0  0
    1.8097   -4.6024    0.0000 C   0  0  0  0  0  0  0  0  0  0  0  0
    1.9353   -6.8071    0.0000 C   0  0  0  0  0  0  0  0  0  0  0  0
    2.6497   -7.2196    0.0000 N   0  0  0  0  0  0  0  0  0  0  0  0
    1.1816   -7.1426    0.0000 O   0  0  0  0  0  0  0  0  0  0  0  0
    5.3887   -6.1726    0.0000 Cl  0  0  0  0  0  0  0  0  0  0  0  0
  1  2  2  0  0  0  0
  2  3  1  0  0  0  0
  3  4  2  0  0  0  0
  4  5  1  0  0  0  0
  5  6  2  0  0  0  0
  1  6  1  0  0  0  0
  6  7  1  0  0  0  0
  7  8  1  0  0  0  0
  8  9  1  0  0  0  0
  9 10  1  0  0  0  0
 10 11  1  0  0  0  0
 11 12  1  0  0  0  0
 12 13  1  0  0  0  0
 13 14  1  0  0  0  0
 14 15  1  0  0  0  0
 15 16  1  0  0  0  0
 16 17  2  0  0  0  0
 17 18  1  0  0  0  0
 18 19  2  0  0  0  0
 19 20  1  0  0  0  0
 20 21  2  0  0  0  0
 16 21  1  0  0  0  0
 17 22  1  0  0  0  0
 22 23  1  0  0  0  0
 15 23  1  0  0  0  0
 23 24  2  0  0  0  0
 11 25  1  0  0  0  0
 25 26  1  0  0  0  0
  8 26  1  0  0  0  0
  7 27  1  0  0  0  0
 27 28  1  0  0  0  0
  5 28  1  0  0  0  0
 27 29  2  0  0  0  0
  3 30  1  0  0  0  0
M  END
>  <Name>
Domperidone

>  <CAS>
57808-66-9

>  <Formula>
C22H24ClN5O2

>  <MolWt>
425.92 

>  <Bioactivity>
Domperidone(Motilium) is a dopamine blocker and an antidopaminergic reagent. It blocks the action of. It has strong affinities for the D2 and D3 dopamine receptors, which are found in the chemoreceptor trigger zone, located just outside the blood brain barrier, which - among others - regulates nausea and vomiting (area postrema on the floor of the fourth ventricle and rhomboid fossa).

>  <Pathways>
Neuroscience

>  <Target>
Dopamine Receptor antagonist

>  <Receptor>
D2, D3 dopamine receptor

>  <Reference>
1. Freedman SB, et al. J Pharmacol Exp Ther. 1994 Jan;268(1):417-26.

$$$$
1953-04-4
  Mrv1561503291623562D          

 23 24  0  0  1  0            999 V2000
    0.4610   -0.0528    0.0000 C   0  0  0  0  0  0  0  0  0  0  0  0
    0.7176   -0.8368    0.0000 C   0  0  0  0  0  0  0  0  0  0  0  0
    0.0513   -1.3232    0.0000 O   0  0  0  0  0  0  0  0  0  0  0  0
   -0.6172   -0.8397    0.0000 C   0  0  0  0  0  0  0  0  0  0  0  0
   -1.4238   -1.0130    0.0000 C   0  0  0  0  0  0  0  0  0  0  0  0
   -1.6770   -1.7982    0.0000 O   0  0  0  0  0  0  0  0  0  0  0  0
   -1.1237   -2.4101    0.0000 C   0  0  0  0  0  0  0  0  0  0  0  0
   -1.9772   -0.4012    0.0000 C   0  0  0  0  0  0  0  0  0  0  0  0
   -1.7240    0.3840    0.0000 C   0  0  0  0  0  0  0  0  0  0  0  0
   -0.8798    0.5893    0.0000 C   0  0  0  0  0  0  0  0  0  0  0  0
   -0.3640   -0.0546    0.0000 C   0  0  0  0  0  0  0  0  0  0  0  0
   -0.8102    1.3889    0.0000 C   0  0  0  0  0  0  0  0  0  0  0  0
   -0.2894    2.0425    0.0000 N   0  0  0  0  0  0  0  0  0  0  0  0
    0.4663    1.6669    0.0000 C   0  0  0  0  0  0  0  0  0  0  0  0
    0.3439    0.8178    0.0000 C   0  0  0  0  0  0  0  0  0  0  0  0
   -0.4682    2.8479    0.0000 C   0  0  0  0  0  0  0  0  0  0  0  0
    1.5250   -1.0066    0.0000 C   0  0  0  0  0  0  0  0  0  0  0  0
    2.0757   -0.3923    0.0000 C   0  0  0  0  0  0  0  0  0  0  0  0
    2.8830   -0.5621    0.0000 O   0  0  0  0  0  0  0  0  0  0  0  0
    1.8190    0.3918    0.0000 C   0  0  0  0  0  0  0  0  0  0  0  0
    1.0117    0.5615    0.0000 C   0  0  0  0  0  0  0  0  0  0  0  0
    6.0652    0.0000    0.0000 H   0  3  0  0  0  0  0  0  0  0  0  0
    5.2402    0.0000    0.0000 Br  0  5  0  0  0  0  0  0  0  0  0  0
  1  2  1  0  0  0  0
  2  3  1  0  0  0  0
  3  4  1  0  0  0  0
  4  5  2  0  0  0  0
  5  6  1  0  0  0  0
  6  7  1  0  0  0  0
  5  8  1  0  0  0  0
  8  9  2  0  0  0  0
  9 10  1  0  0  0  0
 10 11  2  0  0  0  0
  1 11  1  0  0  0  0
  4 11  1  0  0  0  0
 10 12  1  0  0  0  0
 12 13  1  0  0  0  0
 13 14  1  0  0  0  0
 14 15  1  0  0  0  0
  1 15  1  0  0  0  0
 13 16  1  0  0  0  0
  2 17  1  0  0  0  0
 17 18  1  0  0  0  0
 18 19  1  0  0  0  0
 18 20  1  0  0  0  0
 20 21  2  0  0  0  0
  1 21  1  0  0  0  0
M  CHG  2  22   1  23  -1
M  END
>  <Name>
Galanthamine HBr

>  <CAS>
1953-04-4

>  <Formula>
C17H21NO3.HBr

>  <MolWt>
368.27 

>  <Bioactivity>
A benzazepine derived from norbelladine. It is found in GALANTHUS and other AMARYLLIDACEAE. It is a cholinesterase inhibitor that has been used to reverse the muscular effects of GALLAMINE TRIETHIODIDE and TUBOCURARINE and has been studied as a treatment for ALZHEIMER DISEASE and other central nervous system disorders. 

>  <Pathways>
Neuroscience

>  <Target>
AChE inhibitor;AChR modulator

>  <Receptor>
AChE ;Neuronal AChR

>  <Reference>
1. Thomsen T, et al. Eur J Clin Chem Clin Biochem, 1991, 29(8), 487-492.

$$$$
66985-17-9
  Mrv1561503291623562D          

 26 26  0  0  1  0            999 V2000
   -1.9706   -0.5055    0.0000 C   0  0  1  0  0  0  0  0  0  0  0  0
   -1.8994   -1.4583    0.0000 N   0  3  0  0  0  0  0  0  0  0  0  0
   -1.3883   -2.2655    0.0000 C   0  0  2  0  0  0  0  0  0  0  0  0
   -2.1622   -1.9797    0.0000 C   0  0  0  0  0  0  0  0  0  0  0  0
   -2.4213   -1.1965    0.0000 C   0  0  0  0  0  0  0  0  0  0  0  0
   -0.6823   -1.8385    0.0000 C   0  0  0  0  0  0  0  0  0  0  0  0
   -0.5760   -1.0204    0.0000 C   0  0  0  0  0  0  0  0  0  0  0  0
    0.2097   -0.4648    0.0000 O   0  0  0  0  0  0  0  0  0  0  0  0
    0.7875    0.2050    0.0000 C   0  0  0  0  0  0  0  0  0  0  0  0
    0.0616    0.5970    0.0000 O   0  0  0  0  0  0  0  0  0  0  0  0
    1.5047    0.6466    0.0000 C   0  0  0  0  0  0  0  0  0  0  0  0
    2.2543    0.2050    0.0000 C   0  0  0  0  0  0  0  0  0  0  0  0
    2.2470   -0.6200    0.0000 O   0  0  0  0  0  0  0  0  0  0  0  0
    1.5120    1.4716    0.0000 C   0  0  0  0  0  0  0  0  0  0  0  0
    0.8012    1.8904    0.0000 C   0  0  0  0  0  0  0  0  0  0  0  0
    0.8085    2.7154    0.0000 C   0  0  0  0  0  0  0  0  0  0  0  0
    1.5266    3.1215    0.0000 C   0  0  0  0  0  0  0  0  0  0  0  0
    2.2374    2.7027    0.0000 C   0  0  0  0  0  0  0  0  0  0  0  0
    2.2301    1.8778    0.0000 C   0  0  0  0  0  0  0  0  0  0  0  0
   -1.1493   -0.4272    0.0000 C   0  0  0  0  0  0  0  0  0  0  0  0
   -1.1411   -0.8090    0.0000 C   0  0  0  0  0  0  0  0  0  0  0  0
   -1.5249    0.1077    0.0000 C   0  0  0  0  0  0  0  0  0  0  0  0
   -0.1266   -1.2147    0.0000 C   0  0  0  0  0  0  0  0  0  0  0  0
   -1.1385   -1.7406    0.0000 C   0  0  0  0  0  0  0  0  0  0  0  0
    4.6114    0.0000    0.0000 Br  0  5  0  0  0  0  0  0  0  0  0  0
    0.0000   -3.9155    0.0000 O   0  0  0  0  0  0  0  0  0  0  0  0
  1  2  1  0  0  0  0
  2  3  1  0  0  0  0
  3  4  1  1  0  0  0
  4  5  1  0  0  0  0
  1  5  1  1  0  0  0
  3  6  1  0  0  0  0
  6  7  1  0  0  0  0
  7  8  1  0  0  0  0
  8  9  1  0  0  0  0
  9 10  2  0  0  0  0
  9 11  1  0  0  0  0
 11 12  1  0  0  0  0
 12 13  1  0  0  0  0
 11 14  1  0  0  0  0
 14 15  2  0  0  0  0
 15 16  1  0  0  0  0
 16 17  2  0  0  0  0
 17 18  1  0  0  0  0
 18 19  2  0  0  0  0
 14 19  1  0  0  0  0
  7 20  1  0  0  0  0
  1 20  1  0  0  0  0
  2 21  1  0  0  0  0
 21 22  1  0  0  0  0
 21 23  1  0  0  0  0
  2 24  1  0  0  0  0
M  CHG  2   2   1  25  -1
M  END
>  <Name>
Ipratropium bromide

>  <CAS>
66985-17-9

>  <Formula>
C20H30BrNO3

>  <MolWt>
430.38 

>  <Bioactivity>
Ipratropium Bromide is a muscarinic antagonist, bronchodilator, N-Isopropyl salt of atropine.

>  <Pathways>
Neuroscience

>  <Target>
AChR antagonist

>  <Receptor>
Muscarinic AChR

>  <Reference>
1. Wellington K. Treat Respir Med. 2005; 4(3):215-20; discussion 221-2.

$$$$
T0120
  Mrv1561503291623562D          

 25 27  0  0  1  0            999 V2000
    4.1801    0.6402    0.0000 C   0  0  1  0  0  0  0  0  0  0  0  0
    4.5926   -0.0743    0.0000 O   0  0  0  0  0  0  0  0  0  0  0  0
    3.7676    1.3547    0.0000 C   0  0  0  0  0  0  0  0  0  0  0  0
    4.1801    2.0691    0.0000 C   0  0  0  0  0  0  0  0  0  0  0  0
    3.7676    2.7836    0.0000 C   0  0  0  0  0  0  0  0  0  0  0  0
    2.9426    2.7836    0.0000 C   0  0  0  0  0  0  0  0  0  0  0  0
    2.5301    3.4981    0.0000 F   0  0  0  0  0  0  0  0  0  0  0  0
    2.5301    2.0691    0.0000 C   0  0  0  0  0  0  0  0  0  0  0  0
    2.9426    1.3547    0.0000 C   0  0  0  0  0  0  0  0  0  0  0  0
    2.5301    0.6402    0.0000 F   0  0  0  0  0  0  0  0  0  0  0  0
    4.8946    1.0527    0.0000 C   0  0  2  0  0  0  0  0  0  0  0  0
    5.6091    0.6402    0.0000 C   0  0  0  0  0  0  0  0  0  0  0  0
    6.3235    1.0527    0.0000 C   0  0  0  0  0  0  0  0  0  0  0  0
    6.3235    1.8777    0.0000 F   0  0  0  0  0  0  0  0  0  0  0  0
    7.0380    0.6402    0.0000 C   0  0  0  0  0  0  0  0  0  0  0  0
    7.0380   -0.1848    0.0000 N   0  0  0  0  0  0  0  0  0  0  0  0
    6.3235   -0.5973    0.0000 C   0  0  0  0  0  0  0  0  0  0  0  0
    5.6091   -0.1848    0.0000 N   0  0  0  0  0  0  0  0  0  0  0  0
    4.8946    1.8777    0.0000 C   0  0  0  0  0  0  0  0  0  0  0  0
    3.4656    0.2277    0.0000 C   0  0  0  0  0  0  0  0  0  0  0  0
    3.4656   -0.5973    0.0000 N   0  0  0  0  0  0  0  0  0  0  0  0
    4.1331   -1.0822    0.0000 N   0  0  0  0  0  0  0  0  0  0  0  0
    3.8781   -1.8669    0.0000 C   0  0  0  0  0  0  0  0  0  0  0  0
    3.0531   -1.8669    0.0000 N   0  0  0  0  0  0  0  0  0  0  0  0
    2.7982   -1.0822    0.0000 C   0  0  0  0  0  0  0  0  0  0  0  0
  1  2  1  1  0  0  0
  1  3  1  0  0  0  0
  3  4  2  0  0  0  0
  4  5  1  0  0  0  0
  5  6  2  0  0  0  0
  6  7  1  0  0  0  0
  6  8  1  0  0  0  0
  8  9  2  0  0  0  0
  3  9  1  0  0  0  0
  9 10  1  0  0  0  0
  1 11  1  0  0  0  0
 11 12  1  0  0  0  0
 12 13  2  0  0  0  0
 13 14  1  0  0  0  0
 13 15  1  0  0  0  0
 15 16  2  0  0  0  0
 16 17  1  0  0  0  0
 17 18  2  0  0  0  0
 12 18  1  0  0  0  0
 11 19  1  1  0  0  0
  1 20  1  6  0  0  0
 20 21  1  0  0  0  0
 21 22  1  0  0  0  0
 22 23  2  0  0  0  0
 23 24  1  0  0  0  0
 24 25  2  0  0  0  0
 21 25  1  0  0  0  0
M  END
>  <Name>
Voriconazole

>  <CAS>
137234-62-9

>  <Formula>
C16H14F3N5O

>  <MolWt>
349.31 

>  <Bioactivity>
Voriconazole is an Azole Antifungal. Voriconazole is a new triazole derivative similar to fluconazole and itraconazole that acts by inhibiting fungal cytochrome P-450-dependent, 14-alpha-sterol demethylase-mediated synthesis of ergosterol.

>  <Pathways>
Microbiology & Virology

>  <Target>
Antibiotic

>  <Receptor>
14-? Demethylase

>  <Reference>
1. Espinel-Ingroff A, et al. J Clin Microbiol, 1998, 36(1), 198-202.

$$$$
T0244
  Mrv1561503291623562D          

 34 32  0  0  0  0            999 V2000
    0.4125    0.0000    0.0000 H   0  3  0  0  0  0  0  0  0  0  0  0
    3.5946    0.0000    0.0000 H   0  3  0  0  0  0  0  0  0  0  0  0
    2.2224   -9.2926    0.0000 C   0  0  0  0  0  0  0  0  0  0  0  0
    1.3974   -9.2926    0.0000 O   0  0  0  0  0  0  0  0  0  0  0  0
    0.9849   -8.5781    0.0000 C   0  0  0  0  0  0  0  0  0  0  0  0
    1.3974   -7.8636    0.0000 C   0  0  0  0  0  0  0  0  0  0  0  0
    0.9849   -7.1492    0.0000 C   0  0  0  0  0  0  0  0  0  0  0  0
    0.1599   -7.1492    0.0000 C   0  0  0  0  0  0  0  0  0  0  0  0
   -0.3921   -6.5361    0.0000 C   0  0  0  0  0  0  0  0  0  0  0  0
   -1.1458   -6.8716    0.0000 C   0  0  0  0  0  0  0  0  0  0  0  0
   -1.0596   -7.6921    0.0000 C   0  0  0  0  0  0  0  0  0  0  0  0
   -1.6727   -8.2441    0.0000 O   0  0  0  0  0  0  0  0  0  0  0  0
   -0.2526   -7.8636    0.0000 C   0  0  0  0  0  0  0  0  0  0  0  0
    0.1599   -8.5781    0.0000 C   0  0  0  0  0  0  0  0  0  0  0  0
   -1.8132   -6.3867    0.0000 C   0  0  0  0  0  0  0  0  0  0  0  0
   -1.7270   -5.5662    0.0000 C   0  0  0  0  0  0  0  0  0  0  0  0
   -2.3944   -5.0813    0.0000 O   0  0  0  0  0  0  0  0  0  0  0  0
   -2.3082   -4.2608    0.0000 C   0  0  0  0  0  0  0  0  0  0  0  0
   -2.9756   -3.7759    0.0000 C   0  0  0  0  0  0  0  0  0  0  0  0
   -2.8894   -2.9554    0.0000 N   0  0  0  0  0  0  0  0  0  0  0  0
   -3.5568   -2.4705    0.0000 C   0  0  0  0  0  0  0  0  0  0  0  0
   -3.4706   -1.6500    0.0000 C   0  0  0  0  0  0  0  0  0  0  0  0
   -2.1357   -2.6198    0.0000 C   0  0  0  0  0  0  0  0  0  0  0  0
   -1.4683   -3.1048    0.0000 C   0  0  0  0  0  0  0  0  0  0  0  0
   -0.9733   -5.2307    0.0000 C   0  0  0  0  0  0  0  0  0  0  0  0
   -0.3059   -5.7156    0.0000 C   0  0  0  0  0  0  0  0  0  0  0  0
    2.6349  -10.0070    0.0000 C   0  0  0  0  0  0  0  0  0  0  0  0
    3.4599  -10.0070    0.0000 N   0  0  0  0  0  0  0  0  0  0  0  0
    3.8724  -10.7215    0.0000 C   0  0  0  0  0  0  0  0  0  0  0  0
    4.6974  -10.7215    0.0000 C   0  0  0  0  0  0  0  0  0  0  0  0
    3.8724   -9.2926    0.0000 C   0  0  0  0  0  0  0  0  0  0  0  0
    4.6974   -9.2926    0.0000 C   0  0  0  0  0  0  0  0  0  0  0  0
   -0.4125    0.0000    0.0000 Cl  0  5  0  0  0  0  0  0  0  0  0  0
    2.7696    0.0000    0.0000 Cl  0  5  0  0  0  0  0  0  0  0  0  0
  3  4  1  0  0  0  0
  4  5  1  0  0  0  0
  5  6  2  0  0  0  0
  6  7  1  0  0  0  0
  7  8  2  0  0  0  0
  8  9  1  0  0  0  0
  9 10  2  0  0  0  0
 10 11  1  0  0  0  0
 11 12  2  0  0  0  0
 11 13  1  0  0  0  0
  8 13  1  0  0  0  0
 13 14  2  0  0  0  0
  5 14  1  0  0  0  0
 10 15  1  0  0  0  0
 15 16  2  0  0  0  0
 16 17  1  0  0  0  0
 17 18  1  0  0  0  0
 18 19  1  0  0  0  0
 19 20  1  0  0  0  0
 20 21  1  0  0  0  0
 21 22  1  0  0  0  0
 20 23  1  0  0  0  0
 23 24  1  0  0  0  0
 16 25  1  0  0  0  0
 25 26  2  0  0  0  0
  9 26  1  0  0  0  0
  3 27  1  0  0  0  0
 27 28  1  0  0  0  0
 28 29  1  0  0  0  0
 29 30  1  0  0  0  0
 28 31  1  0  0  0  0
 31 32  1  0  0  0  0
M  CHG  4   1   1   2   1  33  -1  34  -1
M  END
>  <Name>
Tilorone 2HCl

>  <CAS>
27591-69-1

>  <Formula>
C25H34N2O3

>  <MolWt>
483.47 

>  <Bioactivity>
An antiviral agent used as its hydrochloride. It is the first recognized synthetic, low-molecular-weight compound that is an orally active interferon inducer, and is also reported to have antineoplastic and anti-inflammatory actions.

>  <Pathways>
Microbiology & Virology

>  <Target>
Antiviral

>  <Receptor>
interferon inducer

>  <Reference>
1. Stringfellow DA, Glasgow LA. Antimicrob Agents Chemother. 1972 Aug;2(2):73-8.

$$$$
90274-24-1
  Mrv1561503291623562D          

 23 23  0  0  0  0            999 V2000
   -0.4222   -1.0312    0.0000 C   0  0  0  0  0  0  0  0  0  0  0  0
   -0.4222   -0.2062    0.0000 C   0  0  0  0  0  0  0  0  0  0  0  0
   -1.1367    0.2062    0.0000 C   0  0  0  0  0  0  0  0  0  0  0  0
   -1.8511   -0.2063    0.0000 C   0  0  0  0  0  0  0  0  0  0  0  0
   -2.5656    0.2062    0.0000 C   0  0  0  0  0  0  0  0  0  0  0  0
   -3.2801   -0.2063    0.0000 C   0  0  0  0  0  0  0  0  0  0  0  0
   -3.9945    0.2062    0.0000 C   0  0  0  0  0  0  0  0  0  0  0  0
   -3.9945    1.0312    0.0000 C   0  0  0  0  0  0  0  0  0  0  0  0
   -3.2801    1.4437    0.0000 C   0  0  0  0  0  0  0  0  0  0  0  0
   -2.5656    1.0312    0.0000 C   0  0  0  0  0  0  0  0  0  0  0  0
   -4.7090    1.4437    0.0000 O   0  0  0  0  0  0  0  0  0  0  0  0
    0.2923    0.2063    0.0000 N   0  0  0  0  0  0  0  0  0  0  0  0
    1.0068   -0.2062    0.0000 C   0  0  0  0  0  0  0  0  0  0  0  0
    1.7212    0.2063    0.0000 C   0  0  0  0  0  0  0  0  0  0  0  0
    2.4357   -0.2062    0.0000 C   0  0  0  0  0  0  0  0  0  0  0  0
    3.1502    0.2062    0.0000 C   0  0  0  0  0  0  0  0  0  0  0  0
    3.8646   -0.2062    0.0000 C   0  0  0  0  0  0  0  0  0  0  0  0
    3.8646   -1.0312    0.0000 C   0  0  0  0  0  0  0  0  0  0  0  0
    3.1502   -1.4437    0.0000 C   0  0  0  0  0  0  0  0  0  0  0  0
    2.4357   -1.0312    0.0000 C   0  0  0  0  0  0  0  0  0  0  0  0
    4.5791   -1.4438    0.0000 O   0  0  0  0  0  0  0  0  0  0  0  0
    1.7212    1.0313    0.0000 O   0  0  0  0  0  0  0  0  0  0  0  0
    6.5827    0.0000    0.0000 Cl  0  0  0  0  0  0  0  0  0  0  0  0
  1  2  1  0  0  0  0
  2  3  1  0  0  0  0
  3  4  1  0  0  0  0
  4  5  1  0  0  0  0
  5  6  2  0  0  0  0
  6  7  1  0  0  0  0
  7  8  2  0  0  0  0
  8  9  1  0  0  0  0
  9 10  2  0  0  0  0
  5 10  1  0  0  0  0
  8 11  1  0  0  0  0
  2 12  1  0  0  0  0
 12 13  1  0  0  0  0
 13 14  1  0  0  0  0
 14 15  1  0  0  0  0
 15 16  2  0  0  0  0
 16 17  1  0  0  0  0
 17 18  2  0  0  0  0
 18 19  1  0  0  0  0
 19 20  2  0  0  0  0
 15 20  1  0  0  0  0
 18 21  1  0  0  0  0
 14 22  1  0  0  0  0
M  END
>  <Name>
Ractopamine HCl

>  <CAS>
90274-24-1

>  <Formula>
C18H23NO3.HCl

>  <MolWt>
337.84 

>  <Bioactivity>
Ractopamine is a feed additive to promote leanness in animals raised for their meat. Pharmacologically, it is a beta-adrenergic agonist. It is the active ingredient in products known as Paylean for swine and Optaflexx for cattle, developed by Elanco Animal Health, a division of Eli Lilly and Company, for use in food animals for growth promotion.

>  <Pathways>
GPCR/G Protein

>  <Target>
Adrenergic Receptor agonist

>  <Receptor>
?-adrenergic receptor

>  <Reference>
1. Liu X, et al. J Pharmacol Exp Ther. 2014 Jul;350(1):124-9.

$$$$
26002-80-2
  Mrv1561503291623562D          

 26 28  0  0  0  0            999 V2000
    3.5724   -5.0138    0.0000 C   0  0  0  0  0  0  0  0  0  0  0  0
    4.2868   -4.6013    0.0000 C   0  0  0  0  0  0  0  0  0  0  0  0
    4.2868   -3.7763    0.0000 O   0  0  0  0  0  0  0  0  0  0  0  0
    5.0013   -3.3638    0.0000 C   0  0  0  0  0  0  0  0  0  0  0  0
    5.0013   -2.5388    0.0000 C   0  0  0  0  0  0  0  0  0  0  0  0
    5.7158   -2.1263    0.0000 C   0  0  0  0  0  0  0  0  0  0  0  0
    6.4302   -2.5388    0.0000 C   0  0  0  0  0  0  0  0  0  0  0  0
    6.4302   -3.3638    0.0000 C   0  0  0  0  0  0  0  0  0  0  0  0
    5.7158   -3.7763    0.0000 C   0  0  0  0  0  0  0  0  0  0  0  0
    5.0013   -5.0138    0.0000 C   0  0  0  0  0  0  0  0  0  0  0  0
    5.0013   -5.8388    0.0000 C   0  0  0  0  0  0  0  0  0  0  0  0
    4.2868   -6.2513    0.0000 C   0  0  0  0  0  0  0  0  0  0  0  0
    3.5724   -5.8388    0.0000 C   0  0  0  0  0  0  0  0  0  0  0  0
    2.8579   -6.2513    0.0000 C   0  0  0  0  0  0  0  0  0  0  0  0
    2.1434   -5.8388    0.0000 O   0  0  0  0  0  0  0  0  0  0  0  0
    1.4289   -6.2513    0.0000 C   0  0  0  0  0  0  0  0  0  0  0  0
    0.7145   -5.8388    0.0000 C   0  0  0  0  0  0  0  0  0  0  0  0
   -0.1105   -5.8388    0.0000 C   0  0  0  0  0  0  0  0  0  0  0  0
    0.3020   -5.1243    0.0000 C   0  0  0  0  0  0  0  0  0  0  0  0
   -0.1712   -4.4485    0.0000 C   0  0  0  0  0  0  0  0  0  0  0  0
    0.7752   -4.4485    0.0000 C   0  0  0  0  0  0  0  0  0  0  0  0
   -0.8250   -6.2513    0.0000 C   0  0  0  0  0  0  0  0  0  0  0  0
   -1.5395   -5.8388    0.0000 C   0  0  0  0  0  0  0  0  0  0  0  0
   -2.2539   -6.2513    0.0000 C   0  0  0  0  0  0  0  0  0  0  0  0
   -1.5395   -5.0138    0.0000 C   0  0  0  0  0  0  0  0  0  0  0  0
    1.4289   -7.0763    0.0000 O   0  0  0  0  0  0  0  0  0  0  0  0
  1  2  2  0  0  0  0
  2  3  1  0  0  0  0
  3  4  1  0  0  0  0
  4  5  2  0  0  0  0
  5  6  1  0  0  0  0
  6  7  2  0  0  0  0
  7  8  1  0  0  0  0
  8  9  2  0  0  0  0
  4  9  1  0  0  0  0
  2 10  1  0  0  0  0
 10 11  2  0  0  0  0
 11 12  1  0  0  0  0
 12 13  2  0  0  0  0
  1 13  1  0  0  0  0
 13 14  1  0  0  0  0
 14 15  1  0  0  0  0
 15 16  1  0  0  0  0
 16 17  1  0  0  0  0
 17 18  1  0  0  0  0
 18 19  1  0  0  0  0
 17 19  1  0  0  0  0
 19 20  1  0  0  0  0
 19 21  1  0  0  0  0
 18 22  1  0  0  0  0
 22 23  2  0  0  0  0
 23 24  1  0  0  0  0
 23 25  1  0  0  0  0
 16 26  2  0  0  0  0
M  END
>  <Name>
Phenothrin

>  <CAS>
26002-80-2

>  <Formula>
C23H26O3

>  <MolWt>
350.45 

>  <Bioactivity>
Phenothrin, also called sumithrin, is a synthetic pyrethroid that kills adult fleas and ticks. It has also been used to kill head lice in humans. D-Phenothrin is used as a component of aerosol insecticides for domestic use. Phenothrin is often used with methoprene, an insect growth regulator that interrupts the insect's biological life cycle by killing the eggs.

>  <Pathways>
Others

>  <Target>
Others

>  <Receptor>
Others

>  <Reference>
1. Nagy K, et al. Mutat Res Genet Toxicol Environ Mutagen. 2014 Aug;770:1-5.

$$$$
71-58-9
  Mrv1561503291623562D          

 28 31  0  0  1  0            999 V2000
    4.7875    0.9666    0.0000 C   0  0  1  0  0  0  0  0  0  0  0  0
    3.9629    0.9934    0.0000 C   0  0  2  0  0  0  0  0  0  0  0  0
    3.6826    0.2174    0.0000 C   0  0  2  0  0  0  0  0  0  0  0  0
    2.8705    0.0722    0.0000 C   0  0  1  0  0  0  0  0  0  0  0  0
    2.3387    0.7029    0.0000 C   0  0  1  0  0  0  0  0  0  0  0  0
    1.5266    0.5577    0.0000 C   0  0  2  0  0  0  0  0  0  0  0  0
    1.2463   -0.2182    0.0000 C   0  0  0  0  0  0  0  0  0  0  0  0
    0.4342   -0.3634    0.0000 C   0  0  0  0  0  0  0  0  0  0  0  0
   -0.0976    0.2673    0.0000 C   0  0  0  0  0  0  0  0  0  0  0  0
   -0.9098    0.1221    0.0000 O   0  0  0  0  0  0  0  0  0  0  0  0
    0.1827    1.0432    0.0000 C   0  0  0  0  0  0  0  0  0  0  0  0
    0.9948    1.1884    0.0000 C   0  0  0  0  0  0  0  0  0  0  0  0
    1.7781   -0.8489    0.0000 C   0  0  2  0  0  0  0  0  0  0  0  0
    2.5902   -0.7037    0.0000 C   0  0  0  0  0  0  0  0  0  0  0  0
    1.4978   -1.6248    0.0000 C   0  0  0  0  0  0  0  0  0  0  0  0
    1.8069    1.3336    0.0000 C   0  0  0  0  0  0  0  0  0  0  0  0
    2.6190    1.4789    0.0000 C   0  0  0  0  0  0  0  0  0  0  0  0
    3.4311    1.6241    0.0000 C   0  0  0  0  0  0  0  0  0  0  0  0
    4.3340   -0.2889    0.0000 C   0  0  0  0  0  0  0  0  0  0  0  0
    5.0168    0.1741    0.0000 C   0  0  0  0  0  0  0  0  0  0  0  0
    4.3228    1.7357    0.0000 C   0  0  0  0  0  0  0  0  0  0  0  0
    5.5484    1.2854    0.0000 O   0  0  0  0  0  0  0  0  0  0  0  0
    6.2050    0.7859    0.0000 C   0  0  0  0  0  0  0  0  0  0  0  0
    6.9659    1.1048    0.0000 C   0  0  0  0  0  0  0  0  0  0  0  0
    6.1007   -0.0325    0.0000 O   0  0  0  0  0  0  0  0  0  0  0  0
    4.9089    1.7826    0.0000 C   0  0  0  0  0  0  0  0  0  0  0  0
    4.2629    2.2957    0.0000 C   0  0  0  0  0  0  0  0  0  0  0  0
    5.6763    2.0854    0.0000 O   0  0  0  0  0  0  0  0  0  0  0  0
  1  2  1  0  0  0  0
  2  3  1  0  0  0  0
  3  4  1  0  0  0  0
  4  5  1  0  0  0  0
  5  6  1  0  0  0  0
  6  7  1  0  0  0  0
  7  8  2  0  0  0  0
  8  9  1  0  0  0  0
  9 10  2  0  0  0  0
  9 11  1  0  0  0  0
 11 12  1  0  0  0  0
  6 12  1  0  0  0  0
  7 13  1  0  0  0  0
 13 14  1  0  0  0  0
  4 14  1  6  0  0  0
 13 15  1  6  0  0  0
  6 16  1  1  0  0  0
  5 17  1  1  0  0  0
 17 18  1  0  0  0  0
  2 18  1  0  0  0  0
  3 19  1  1  0  0  0
 19 20  1  0  0  0  0
  1 20  1  0  0  0  0
  2 21  1  1  0  0  0
  1 22  1  6  0  0  0
 22 23  1  0  0  0  0
 23 24  1  0  0  0  0
 23 25  2  0  0  0  0
  1 26  1  1  0  0  0
 26 27  1  0  0  0  0
 26 28  2  0  0  0  0
M  END
>  <Name>
Farlutin

>  <CAS>
71-58-9

>  <Formula>
C24H34O4

>  <MolWt>
386.54 

>  <Bioactivity>
A synthetic progestin that is derived from 17-hydroxyprogesterone. It is a long-acting contraceptive that is effective both orally or by intramuscular injection and has also been used to treat breast and endometrial neoplasms. 

>  <Pathways>
Endocrinology/ Hormones

>  <Target>
Estrogen/Progestogen Receptor agonist

>  <Receptor>
Estrogen receptor;Progesterone receptor

>  <Reference>
1. Risch HA, et al. Cancer Epidemiol Biomarkers Prev. 2006 Sep;15(9):1738-41. 

$$$$
797-63-7
  Mrv1561503291623562D          

 23 26  0  0  1  0            999 V2000
    3.9629    0.9934    0.0000 C   0  0  2  0  0  0  0  0  0  0  0  0
    3.6826    0.2174    0.0000 C   0  0  2  0  0  0  0  0  0  0  0  0
    2.8705    0.0722    0.0000 C   0  0  1  0  0  0  0  0  0  0  0  0
    2.3387    0.7029    0.0000 C   0  0  1  0  0  0  0  0  0  0  0  0
    1.5266    0.5577    0.0000 C   0  0  2  0  0  0  0  0  0  0  0  0
    1.2463   -0.2182    0.0000 C   0  0  0  0  0  0  0  0  0  0  0  0
    0.4342   -0.3634    0.0000 C   0  0  0  0  0  0  0  0  0  0  0  0
   -0.0976    0.2673    0.0000 C   0  0  0  0  0  0  0  0  0  0  0  0
   -0.9098    0.1221    0.0000 O   0  0  0  0  0  0  0  0  0  0  0  0
    0.1827    1.0432    0.0000 C   0  0  0  0  0  0  0  0  0  0  0  0
    0.9948    1.1884    0.0000 C   0  0  0  0  0  0  0  0  0  0  0  0
    1.7781   -0.8489    0.0000 C   0  0  0  0  0  0  0  0  0  0  0  0
    2.5902   -0.7037    0.0000 C   0  0  0  0  0  0  0  0  0  0  0  0
    2.6190    1.4789    0.0000 C   0  0  0  0  0  0  0  0  0  0  0  0
    3.4311    1.6241    0.0000 C   0  0  0  0  0  0  0  0  0  0  0  0
    4.3340   -0.2889    0.0000 C   0  0  0  0  0  0  0  0  0  0  0  0
    5.0168    0.1741    0.0000 C   0  0  0  0  0  0  0  0  0  0  0  0
    4.7875    0.9666    0.0000 C   0  0  1  0  0  0  0  0  0  0  0  0
    4.9089    1.7826    0.0000 C   0  0  0  0  0  0  0  0  0  0  0  0
    5.0303    2.5986    0.0000 C   0  0  0  0  0  0  0  0  0  0  0  0
    5.5484    1.2854    0.0000 O   0  0  0  0  0  0  0  0  0  0  0  0
    4.3228    1.7357    0.0000 C   0  0  0  0  0  0  0  0  0  0  0  0
    3.8598    2.4186    0.0000 C   0  0  0  0  0  0  0  0  0  0  0  0
  1  2  1  0  0  0  0
  2  3  1  0  0  0  0
  3  4  1  0  0  0  0
  4  5  1  0  0  0  0
  5  6  1  0  0  0  0
  6  7  2  0  0  0  0
  7  8  1  0  0  0  0
  8  9  2  0  0  0  0
  8 10  1  0  0  0  0
 10 11  1  0  0  0  0
  5 11  1  6  0  0  0
  6 12  1  0  0  0  0
 12 13  1  0  0  0  0
  3 13  1  6  0  0  0
  4 14  1  1  0  0  0
 14 15  1  0  0  0  0
  1 15  1  0  0  0  0
  2 16  1  1  0  0  0
 16 17  1  0  0  0  0
 17 18  1  0  0  0  0
  1 18  1  0  0  0  0
 18 19  1  6  0  0  0
 19 20  3  0  0  0  0
 18 21  1  1  0  0  0
  1 22  1  1  0  0  0
 22 23  1  0  0  0  0
M  END
>  <Name>
Levonorgestrel

>  <CAS>
797-63-7

>  <Formula>
C21H28O2

>  <MolWt>
312.45 

>  <Bioactivity>
Levonorgestrel is a synthetic progestogen used as an active ingredient in some hormonal contraceptives.

>  <Pathways>
Endocrinology/ Hormones

>  <Target>
Estrogen/Progestogen receptor agonist

>  <Receptor>
SRD5A1;Estrogen/Progestogen receptor

>  <Reference>
1. Maruo T, et al. Co ntraception. 2007 Jun; 75(6 Suppl):S99-103. 

$$$$
T1290
  Mrv1561503291623562D          

 30 31  0  0  0  0            999 V2000
    1.1541   -1.6420    0.0000 C   0  0  0  0  0  0  0  0  0  0  0  0
    1.8686   -2.0545    0.0000 C   0  0  0  0  0  0  0  0  0  0  0  0
    2.5831   -1.6420    0.0000 C   0  0  0  0  0  0  0  0  0  0  0  0
    2.5831   -0.8170    0.0000 C   0  0  0  0  0  0  0  0  0  0  0  0
    1.8686   -0.4045    0.0000 C   0  0  0  0  0  0  0  0  0  0  0  0
    1.1541   -0.8170    0.0000 C   0  0  0  0  0  0  0  0  0  0  0  0
    0.4397   -0.4045    0.0000 C   0  0  0  0  0  0  0  0  0  0  0  0
    0.4397    0.4205    0.0000 N   0  0  0  0  0  0  0  0  0  0  0  0
   -0.2748    0.8330    0.0000 O   0  0  0  0  0  0  0  0  0  0  0  0
   -0.2748    1.6580    0.0000 C   0  0  0  0  0  0  0  0  0  0  0  0
   -0.9893    2.0705    0.0000 C   0  0  0  0  0  0  0  0  0  0  0  0
   -1.7037    1.6580    0.0000 C   0  0  0  0  0  0  0  0  0  0  0  0
   -1.7037    0.8330    0.0000 Cl  0  0  0  0  0  0  0  0  0  0  0  0
   -2.4182    2.0705    0.0000 C   0  0  0  0  0  0  0  0  0  0  0  0
   -2.4182    2.8955    0.0000 C   0  0  0  0  0  0  0  0  0  0  0  0
   -3.1327    3.3080    0.0000 Cl  0  0  0  0  0  0  0  0  0  0  0  0
   -1.7037    3.3080    0.0000 C   0  0  0  0  0  0  0  0  0  0  0  0
   -0.9893    2.8955    0.0000 C   0  0  0  0  0  0  0  0  0  0  0  0
   -0.2748   -0.8170    0.0000 C   0  0  0  0  0  0  0  0  0  0  0  0
   -0.2748   -1.6420    0.0000 N   0  0  0  0  0  0  0  0  0  0  0  0
    0.3926   -2.1269    0.0000 C   0  0  0  0  0  0  0  0  0  0  0  0
    0.1377   -2.9115    0.0000 N   0  0  0  0  0  0  0  0  0  0  0  0
   -0.6873   -2.9115    0.0000 C   0  0  0  0  0  0  0  0  0  0  0  0
   -0.9422   -2.1269    0.0000 C   0  0  0  0  0  0  0  0  0  0  0  0
    1.8686    0.4205    0.0000 Cl  0  0  0  0  0  0  0  0  0  0  0  0
    3.2976   -2.0545    0.0000 Cl  0  0  0  0  0  0  0  0  0  0  0  0
    6.4208    0.7145    0.0000 O   0  0  0  0  0  0  0  0  0  0  0  0
    6.0083   -0.0000    0.0000 N   0  3  0  0  0  0  0  0  0  0  0  0
    6.4208   -0.7145    0.0000 O   0  5  0  0  0  0  0  0  0  0  0  0
    5.1833   -0.0000    0.0000 O   0  0  0  0  0  0  0  0  0  0  0  0
  1  2  2  0  0  0  0
  2  3  1  0  0  0  0
  3  4  2  0  0  0  0
  4  5  1  0  0  0  0
  5  6  2  0  0  0  0
  1  6  1  0  0  0  0
  6  7  1  0  0  0  0
  7  8  2  0  0  0  0
  8  9  1  0  0  0  0
  9 10  1  0  0  0  0
 10 11  1  0  0  0  0
 11 12  2  0  0  0  0
 12 13  1  0  0  0  0
 12 14  1  0  0  0  0
 14 15  2  0  0  0  0
 15 16  1  0  0  0  0
 15 17  1  0  0  0  0
 17 18  2  0  0  0  0
 11 18  1  0  0  0  0
  7 19  1  0  0  0  0
 19 20  1  0  0  0  0
 20 21  1  0  0  0  0
 21 22  2  0  0  0  0
 22 23  1  0  0  0  0
 23 24  2  0  0  0  0
 20 24  1  0  0  0  0
  5 25  1  0  0  0  0
  3 26  1  0  0  0  0
 27 28  2  0  0  0  0
 28 29  1  0  0  0  0
 28 30  1  0  0  0  0
M  CHG  2  28   1  29  -1
M  END
>  <Name>
Oxiconazole nitrate

>  <CAS>
64211-46-7

>  <Formula>
C18H13Cl4N3OHNO3

>  <MolWt>
492.14 

>  <Bioactivity>
Oxiconazole nitrate (U.S.: Oxistat, Canada: Oxizole) is an antifungal medication typically administered in a cream or lotion to treat skin infections such as athlete's foot, jock itch and ringworm. 

>  <Pathways>
Microbiology & Virology

>  <Target>
Antibiotic

>  <Receptor>
14-? Demethylase;LSS

>  <Reference>
1. Carrillo-Munoz AJ, et al. Rev Esp Quimioter. 2006 Jun;19(2):130-9. 

$$$$
95233-18-4
  Mrv1561503291623562D          

 26 29  0  0  0  0            999 V2000
   -2.1434    2.0625    0.0000 C   0  0  0  0  0  0  0  0  0  0  0  0
   -2.1434    1.2375    0.0000 C   0  0  0  0  0  0  0  0  0  0  0  0
   -1.4289    0.8250    0.0000 C   0  0  0  0  0  0  0  0  0  0  0  0
   -0.7145    1.2375    0.0000 C   0  0  0  0  0  0  0  0  0  0  0  0
   -0.0000    0.8250    0.0000 C   0  0  0  0  0  0  0  0  0  0  0  0
   -0.0000    0.0000    0.0000 C   0  0  0  0  0  0  0  0  0  0  0  0
   -0.7145   -0.4125    0.0000 C   0  0  0  0  0  0  0  0  0  0  0  0
   -1.4289    0.0000    0.0000 C   0  0  0  0  0  0  0  0  0  0  0  0
    0.7145   -0.4125    0.0000 C   0  0  0  0  0  0  0  0  0  0  0  0
    1.4289   -0.0000    0.0000 C   0  0  0  0  0  0  0  0  0  0  0  0
    1.4289    0.8250    0.0000 O   0  0  0  0  0  0  0  0  0  0  0  0
    2.1434   -0.4125    0.0000 C   0  0  0  0  0  0  0  0  0  0  0  0
    2.8579   -0.0000    0.0000 C   0  0  0  0  0  0  0  0  0  0  0  0
    3.5724   -0.4125    0.0000 C   0  0  0  0  0  0  0  0  0  0  0  0
    3.5724   -1.2375    0.0000 C   0  0  0  0  0  0  0  0  0  0  0  0
    2.8579   -1.6500    0.0000 C   0  0  0  0  0  0  0  0  0  0  0  0
    2.1434   -1.2375    0.0000 C   0  0  0  0  0  0  0  0  0  0  0  0
    1.4289   -1.6500    0.0000 C   0  0  0  0  0  0  0  0  0  0  0  0
    1.4289   -2.4750    0.0000 O   0  0  0  0  0  0  0  0  0  0  0  0
    0.7145   -1.2375    0.0000 C   0  0  0  0  0  0  0  0  0  0  0  0
   -0.0000   -1.6500    0.0000 O   0  0  0  0  0  0  0  0  0  0  0  0
   -2.8579    0.8250    0.0000 C   0  0  0  0  0  0  0  0  0  0  0  0
   -3.5724    1.2375    0.0000 C   0  0  0  0  0  0  0  0  0  0  0  0
   -3.5724    2.0625    0.0000 C   0  0  0  0  0  0  0  0  0  0  0  0
   -2.8579    2.4750    0.0000 C   0  0  0  0  0  0  0  0  0  0  0  0
   -4.2868    2.4750    0.0000 Cl  0  0  0  0  0  0  0  0  0  0  0  0
  1  2  2  0  0  0  0
  2  3  1  0  0  0  0
  3  4  1  0  0  0  0
  4  5  1  0  0  0  0
  5  6  1  0  0  0  0
  6  7  1  0  0  0  0
  7  8  1  0  0  0  0
  3  8  1  0  0  0  0
  6  9  1  0  0  0  0
  9 10  2  0  0  0  0
 10 11  1  0  0  0  0
 10 12  1  0  0  0  0
 12 13  2  0  0  0  0
 13 14  1  0  0  0  0
 14 15  2  0  0  0  0
 15 16  1  0  0  0  0
 16 17  2  0  0  0  0
 12 17  1  0  0  0  0
 17 18  1  0  0  0  0
 18 19  2  0  0  0  0
 18 20  1  0  0  0  0
  9 20  1  0  0  0  0
 20 21  2  0  0  0  0
  2 22  1  0  0  0  0
 22 23  2  0  0  0  0
 23 24  1  0  0  0  0
 24 25  2  0  0  0  0
  1 25  1  0  0  0  0
 24 26  1  0  0  0  0
M  END
>  <Name>
Atovaquone

>  <CAS>
95233-18-4

>  <Formula>
C22H19ClO3

>  <MolWt>
366.84 

>  <Bioactivity>
A hydroxynaphthoquinone that has antimicrobial activity and is being used in antimalarial protocols.

>  <Pathways>
Metabolism

>  <Target>
Cytochrome b inhibitor;Dehydrogenase inhibitor

>  <Receptor>
Cytochrome b;DHODH

>  <Reference>
1. Winter RW, et al. Exp Parasitol. 2008 Apr; 118(4):487-97. 

$$$$
147098-20-2
  Mrv1561503291623562D          

 67 68  0  0  1  0            999 V2000
    0.6514   -1.7349    0.0000 C   0  0  0  0  0  0  0  0  0  0  0  0
   -0.0630   -1.3224    0.0000 C   0  0  0  0  0  0  0  0  0  0  0  0
   -0.0630   -0.4974    0.0000 C   0  0  0  0  0  0  0  0  0  0  0  0
   -0.7775   -0.0849    0.0000 C   0  0  0  0  0  0  0  0  0  0  0  0
   -1.4920   -0.4974    0.0000 C   0  0  0  0  0  0  0  0  0  0  0  0
   -2.2065   -0.0849    0.0000 N   0  0  0  0  0  0  0  0  0  0  0  0
   -2.2065    0.7401    0.0000 C   0  0  0  0  0  0  0  0  0  0  0  0
   -1.4920    1.1526    0.0000 N   0  0  0  0  0  0  0  0  0  0  0  0
   -0.7775    0.7401    0.0000 C   0  0  0  0  0  0  0  0  0  0  0  0
   -0.0630    1.1526    0.0000 C   0  0  0  0  0  0  0  0  0  0  0  0
   -0.0630    1.9776    0.0000 C   0  0  0  0  0  0  0  0  0  0  0  0
    0.6514    2.3901    0.0000 C   0  0  0  0  0  0  0  0  0  0  0  0
    1.3659    1.9776    0.0000 C   0  0  0  0  0  0  0  0  0  0  0  0
    2.0804    2.3901    0.0000 F   0  0  0  0  0  0  0  0  0  0  0  0
    1.3659    1.1526    0.0000 C   0  0  0  0  0  0  0  0  0  0  0  0
    0.6514    0.7401    0.0000 C   0  0  0  0  0  0  0  0  0  0  0  0
   -2.9209    1.1526    0.0000 N   0  0  0  0  0  0  0  0  0  0  0  0
   -2.9209    1.9776    0.0000 S   0  0  0  0  0  0  0  0  0  0  0  0
   -2.0959    1.9776    0.0000 C   0  0  0  0  0  0  0  0  0  0  0  0
   -3.7459    1.9776    0.0000 O   0  0  0  0  0  0  0  0  0  0  0  0
   -2.9209    2.8026    0.0000 O   0  0  0  0  0  0  0  0  0  0  0  0
   -3.6354    0.7401    0.0000 C   0  0  0  0  0  0  0  0  0  0  0  0
   -1.4920   -1.3224    0.0000 C   0  0  0  0  0  0  0  0  0  0  0  0
   -2.2065   -1.7349    0.0000 C   0  0  0  0  0  0  0  0  0  0  0  0
   -0.7775   -1.7349    0.0000 C   0  0  0  0  0  0  0  0  0  0  0  0
    1.3659   -1.3224    0.0000 C   0  0  0  0  0  0  0  0  0  0  0  0
    2.0804   -1.7349    0.0000 C   0  0  0  0  0  0  0  0  0  0  0  0
    2.7948   -1.3224    0.0000 C   0  0  0  0  0  0  0  0  0  0  0  0
    3.5093   -1.7349    0.0000 C   0  0  0  0  0  0  0  0  0  0  0  0
    4.2238   -1.3224    0.0000 O   0  5  0  0  0  0  0  0  0  0  0  0
    3.5093   -2.5599    0.0000 O   0  0  0  0  0  0  0  0  0  0  0  0
    2.0804   -2.5599    0.0000 O   0  0  0  0  0  0  0  0  0  0  0  0
    0.6514   -2.5599    0.0000 O   0  0  0  0  0  0  0  0  0  0  0  0
    9.3210   -0.1500    0.0000 C   0  0  0  0  0  0  0  0  0  0  0  0
    8.6065    0.2625    0.0000 C   0  0  0  0  0  0  0  0  0  0  0  0
    7.8920   -0.1500    0.0000 C   0  0  0  0  0  0  0  0  0  0  0  0
    7.1775    0.2625    0.0000 O   0  5  0  0  0  0  0  0  0  0  0  0
    7.8920   -0.9750    0.0000 O   0  0  0  0  0  0  0  0  0  0  0  0
   10.0354    0.2625    0.0000 C   0  0  0  0  0  0  0  0  0  0  0  0
   10.7499   -0.1500    0.0000 C   0  0  0  0  0  0  0  0  0  0  0  0
   11.4644    0.2625    0.0000 C   0  0  0  0  0  0  0  0  0  0  0  0
   12.1788   -0.1500    0.0000 C   0  0  0  0  0  0  0  0  0  0  0  0
   12.8933    0.2625    0.0000 C   0  0  0  0  0  0  0  0  0  0  0  0
   12.8933    1.0875    0.0000 C   0  0  0  0  0  0  0  0  0  0  0  0
   13.6078    1.5000    0.0000 N   0  0  0  0  0  0  0  0  0  0  0  0
   14.3223    1.0875    0.0000 C   0  0  0  0  0  0  0  0  0  0  0  0
   14.3223    0.2625    0.0000 N   0  0  0  0  0  0  0  0  0  0  0  0
   13.6078   -0.1500    0.0000 C   0  0  0  0  0  0  0  0  0  0  0  0
   13.6078   -0.9750    0.0000 C   0  0  0  0  0  0  0  0  0  0  0  0
   14.3223   -1.3875    0.0000 C   0  0  0  0  0  0  0  0  0  0  0  0
   14.3223   -2.2125    0.0000 C   0  0  0  0  0  0  0  0  0  0  0  0
   13.6078   -2.6250    0.0000 C   0  0  0  0  0  0  0  0  0  0  0  0
   13.6078   -3.4500    0.0000 F   0  0  0  0  0  0  0  0  0  0  0  0
   12.8933   -2.2125    0.0000 C   0  0  0  0  0  0  0  0  0  0  0  0
   12.8933   -1.3875    0.0000 C   0  0  0  0  0  0  0  0  0  0  0  0
   15.0367    1.5000    0.0000 N   0  0  0  0  0  0  0  0  0  0  0  0
   15.7512    1.0875    0.0000 S   0  0  0  0  0  0  0  0  0  0  0  0
   15.3387    0.3730    0.0000 C   0  0  0  0  0  0  0  0  0  0  0  0
   16.1637    1.8020    0.0000 O   0  0  0  0  0  0  0  0  0  0  0  0
   16.4657    0.6750    0.0000 O   0  0  0  0  0  0  0  0  0  0  0  0
   15.0367    2.3250    0.0000 C   0  0  0  0  0  0  0  0  0  0  0  0
   12.1788    1.5000    0.0000 C   0  0  0  0  0  0  0  0  0  0  0  0
   12.1788    2.3250    0.0000 C   0  0  0  0  0  0  0  0  0  0  0  0
   11.4644    1.0875    0.0000 C   0  0  0  0  0  0  0  0  0  0  0  0
   10.7499   -0.9750    0.0000 O   0  0  0  0  0  0  0  0  0  0  0  0
    9.3210   -0.9750    0.0000 O   0  0  0  0  0  0  0  0  0  0  0  0
    4.9383   -0.9099    0.0000 Ca  0  2  0  0  0  0  0  0  0  0  0  0
  1  2  1  0  0  0  0
  2  3  2  0  0  0  0
  3  4  1  0  0  0  0
  4  5  2  0  0  0  0
  5  6  1  0  0  0  0
  6  7  2  0  0  0  0
  7  8  1  0  0  0  0
  8  9  2  0  0  0  0
  4  9  1  0  0  0  0
  9 10  1  0  0  0  0
 10 11  2  0  0  0  0
 11 12  1  0  0  0  0
 12 13  2  0  0  0  0
 13 14  1  0  0  0  0
 13 15  1  0  0  0  0
 15 16  2  0  0  0  0
 10 16  1  0  0  0  0
  7 17  1  0  0  0  0
 17 18  1  0  0  0  0
 18 19  1  0  0  0  0
 18 20  2  0  0  0  0
 18 21  2  0  0  0  0
 17 22  1  0  0  0  0
  5 23  1  0  0  0  0
 23 24  1  0  0  0  0
 23 25  1  0  0  0  0
  1 26  1  0  0  0  0
 26 27  1  0  0  0  0
 27 28  1  0  0  0  0
 28 29  1  0  0  0  0
 29 30  1  0  0  0  0
 29 31  2  0  0  0  0
 27 32  1  0  0  0  0
  1 33  1  0  0  0  0
 34 35  1  0  0  0  0
 35 36  1  0  0  0  0
 36 37  1  0  0  0  0
 36 38  2  0  0  0  0
 34 39  1  0  0  0  0
 39 40  1  0  0  0  0
 40 41  1  0  0  0  0
 41 42  2  0  0  0  0
 42 43  1  0  0  0  0
 43 44  2  0  0  0  0
 44 45  1  0  0  0  0
 45 46  2  0  0  0  0
 46 47  1  0  0  0  0
 47 48  2  0  0  0  0
 43 48  1  0  0  0  0
 48 49  1  0  0  0  0
 49 50  2  0  0  0  0
 50 51  1  0  0  0  0
 51 52  2  0  0  0  0
 52 53  1  0  0  0  0
 52 54  1  0  0  0  0
 54 55  2  0  0  0  0
 49 55  1  0  0  0  0
 46 56  1  0  0  0  0
 56 57  1  0  0  0  0
 57 58  1  0  0  0  0
 57 59  2  0  0  0  0
 57 60  2  0  0  0  0
 56 61  1  0  0  0  0
 44 62  1  0  0  0  0
 62 63  1  0  0  0  0
 62 64  1  0  0  0  0
 40 65  1  0  0  0  0
 34 66  1  0  0  0  0
M  CHG  3  30  -1  37  -1  67   2
M  END
>  <Name>
Rosuvastatin calcium

>  <CAS>
147098-20-2

>  <Formula>
2(C22H27FN3O6S)Ca

>  <MolWt>
1001.14 

>  <Bioactivity>
A selective, competitive inhibitor of HMG-CoA reductase, that is also antilipemic.

>  <Pathways>
Metabolism

>  <Target>
HMG-CoA Reductase inhibitor

>  <Receptor>
HMG-CoA Reductase

>  <Reference>
1. Watanabe M, et al. Bioorg Med Chem, 1997, 5(2), 437-444.

$$$$
189188-57-6
  Mrv1561503291623562D          

 30 30  0  0  0  0            999 V2000
   -2.2914   -0.7914    0.0000 C   0  0  0  0  0  0  0  0  0  0  0  0
   -3.0984   -0.9629    0.0000 C   0  0  0  0  0  0  0  0  0  0  0  0
   -3.6504   -0.3498    0.0000 C   0  0  0  0  0  0  0  0  0  0  0  0
   -3.3955    0.4348    0.0000 C   0  0  0  0  0  0  0  0  0  0  0  0
   -2.5885    0.6063    0.0000 C   0  0  0  0  0  0  0  0  0  0  0  0
   -2.0365   -0.0068    0.0000 C   0  0  0  0  0  0  0  0  0  0  0  0
   -1.2828    0.3288    0.0000 C   0  0  0  0  0  0  0  0  0  0  0  0
   -1.3690    1.1493    0.0000 C   0  0  0  0  0  0  0  0  0  0  0  0
   -2.1760    1.3208    0.0000 N   0  0  0  0  0  0  0  0  0  0  0  0
   -0.5683   -0.0837    0.0000 C   0  0  0  0  0  0  0  0  0  0  0  0
    0.1461    0.3288    0.0000 N   0  0  0  0  0  0  0  0  0  0  0  0
    0.8606   -0.0837    0.0000 N   0  0  0  0  0  0  0  0  0  0  0  0
    1.5751    0.3288    0.0000 C   0  0  0  0  0  0  0  0  0  0  0  0
    2.2896   -0.0837    0.0000 N   0  0  0  0  0  0  0  0  0  0  0  0
    3.0040    0.3288    0.0000 C   0  0  0  0  0  0  0  0  0  0  0  0
    3.7185   -0.0837    0.0000 C   0  0  0  0  0  0  0  0  0  0  0  0
    4.4330    0.3288    0.0000 C   0  0  0  0  0  0  0  0  0  0  0  0
    5.1474   -0.0837    0.0000 C   0  0  0  0  0  0  0  0  0  0  0  0
    5.8619    0.3288    0.0000 C   0  0  0  0  0  0  0  0  0  0  0  0
    1.5751    1.1538    0.0000 N   0  0  0  0  0  0  0  0  0  0  0  0
   -3.3533   -1.7475    0.0000 C   0  0  0  0  0  0  0  0  0  0  0  0
   -2.8013   -2.3606    0.0000 O   0  0  0  0  0  0  0  0  0  0  0  0
   10.9298    0.7145    0.0000 O   0  0  0  0  0  0  0  0  0  0  0  0
   10.1048    0.7145    0.0000 C   0  0  0  0  0  0  0  0  0  0  0  0
    9.6923    1.4289    0.0000 O   0  0  0  0  0  0  0  0  0  0  0  0
    9.6923   -0.0000    0.0000 C   0  0  0  0  0  0  0  0  0  0  0  0
    8.8673   -0.0000    0.0000 C   0  0  0  0  0  0  0  0  0  0  0  0
    8.4548   -0.7145    0.0000 C   0  0  0  0  0  0  0  0  0  0  0  0
    8.8673   -1.4289    0.0000 O   0  0  0  0  0  0  0  0  0  0  0  0
    7.6298   -0.7145    0.0000 O   0  0  0  0  0  0  0  0  0  0  0  0
  1  2  2  0  0  0  0
  2  3  1  0  0  0  0
  3  4  2  0  0  0  0
  4  5  1  0  0  0  0
  5  6  2  0  0  0  0
  1  6  1  0  0  0  0
  6  7  1  0  0  0  0
  7  8  1  0  0  0  0
  8  9  2  0  0  0  0
  5  9  1  0  0  0  0
  7 10  2  0  0  0  0
 10 11  1  0  0  0  0
 11 12  1  0  0  0  0
 12 13  1  0  0  0  0
 13 14  2  0  0  0  0
 14 15  1  4  0  0  0
 15 16  1  0  0  0  0
 16 17  1  0  0  0  0
 17 18  1  0  0  0  0
 18 19  1  0  0  0  0
 13 20  1  0  0  0  0
  2 21  1  0  0  0  0
 21 22  1  0  0  0  0
 23 24  2  0  0  0  0
 24 25  1  0  0  0  0
 24 26  1  0  0  0  0
 26 27  2  0  0  0  0
 27 28  1  0  0  0  0
 28 29  1  0  0  0  0
 28 30  2  0  0  0  0
M  END
>  <Name>
Tegaserod maleate

>  <CAS>
189188-57-6

>  <Formula>
C20H27N5O5

>  <MolWt>
417.46 

>  <Bioactivity>
Tegaserod is a 5-HT4 agonist manufactured by Novartis and used for the management of irritable bowel syndrome and constipation. Its use was the only drug approved by the United States Food and Drug Administration to help relieve the abdominal discomfort, bloating and constipation associated with irritable bowel syndrome. On March 30, 2007, the U.S. Food and Drug Administration requested that Novartis withdraw Zelnorm from shelves. The FDA alleges a relationship between prescriptions of the drug and increased risks of heart attack or stroke. 

>  <Pathways>
Neuroscience

>  <Target>
5-HT Receptor antagonist;Serotonin uptake inhibitor

>  <Receptor>
5-HT receptor ; Sodium-dependent serotonin transporter

>  <Reference>
1. Beattie DT, et al. Br J Pharmacol. 2004 Nov;143(5):549-60. 

$$$$
T1573
  Mrv1561503291623562D          

 31 35  0  0  1  0            999 V2000
    0.8348   -4.5841    0.0000 C   0  0  1  0  0  0  0  0  0  0  0  0
    1.6557   -4.6657    0.0000 C   0  0  2  0  0  0  0  0  0  0  0  0
    1.9870   -3.9101    0.0000 C   0  0  2  0  0  0  0  0  0  0  0  0
    2.8070   -3.8193    0.0000 C   0  0  1  0  0  0  0  0  0  0  0  0
    3.2957   -4.4840    0.0000 C   0  0  1  0  0  0  0  0  0  0  0  0
    4.1157   -4.3931    0.0000 C   0  0  2  0  0  0  0  0  0  0  0  0
    4.4470   -3.6375    0.0000 C   0  0  0  0  0  0  0  0  0  0  0  0
    5.2669   -3.5467    0.0000 C   0  0  0  0  0  0  0  0  0  0  0  0
    5.7556   -4.2114    0.0000 C   0  0  0  0  0  0  0  0  0  0  0  0
    6.5756   -4.1205    0.0000 O   0  0  0  0  0  0  0  0  0  0  0  0
    5.4243   -4.9669    0.0000 C   0  0  0  0  0  0  0  0  0  0  0  0
    4.6043   -5.0578    0.0000 C   0  0  0  0  0  0  0  0  0  0  0  0
    3.9583   -2.9728    0.0000 C   0  0  2  0  0  0  0  0  0  0  0  0
    3.1383   -3.0637    0.0000 C   0  0  0  0  0  0  0  0  0  0  0  0
    4.2896   -2.2173    0.0000 F   0  0  0  0  0  0  0  0  0  0  0  0
    3.7844   -5.1487    0.0000 C   0  0  0  0  0  0  0  0  0  0  0  0
    2.9644   -5.2395    0.0000 C   0  0  2  0  0  0  0  0  0  0  0  0
    2.1444   -5.3304    0.0000 C   0  0  0  0  0  0  0  0  0  0  0  0
    3.4531   -5.9042    0.0000 O   0  0  0  0  0  0  0  0  0  0  0  0
    1.3708   -3.3615    0.0000 C   0  0  0  0  0  0  0  0  0  0  0  0
    0.6587   -3.7781    0.0000 C   0  0  1  0  0  0  0  0  0  0  0  0
   -0.1623   -3.6965    0.0000 O   0  0  0  0  0  0  0  0  0  0  0  0
   -0.4936   -4.4520    0.0000 C   0  0  0  0  0  0  0  0  0  0  0  0
    0.1226   -5.0006    0.0000 O   0  0  0  0  0  0  0  0  0  0  0  0
   -1.2822   -4.2097    0.0000 C   0  0  0  0  0  0  0  0  0  0  0  0
   -1.1093   -5.0011    0.0000 C   0  0  0  0  0  0  0  0  0  0  0  0
    1.4887   -5.4736    0.0000 C   0  0  0  0  0  0  0  0  0  0  0  0
    1.0108   -5.3901    0.0000 C   0  0  0  0  0  0  0  0  0  0  0  0
    0.4009   -5.9455    0.0000 C   0  0  0  0  0  0  0  0  0  0  0  0
   -0.3852   -5.6950    0.0000 O   0  0  0  0  0  0  0  0  0  0  0  0
    1.6810   -5.8712    0.0000 O   0  0  0  0  0  0  0  0  0  0  0  0
  1  2  1  0  0  0  0
  2  3  1  0  0  0  0
  3  4  1  0  0  0  0
  4  5  1  0  0  0  0
  5  6  1  0  0  0  0
  6  7  1  0  0  0  0
  7  8  2  0  0  0  0
  8  9  1  0  0  0  0
  9 10  2  0  0  0  0
  9 11  1  0  0  0  0
 11 12  2  0  0  0  0
  6 12  1  0  0  0  0
  7 13  1  0  0  0  0
 13 14  1  0  0  0  0
  4 14  1  6  0  0  0
 13 15  1  6  0  0  0
  6 16  1  1  0  0  0
  5 17  1  1  0  0  0
 17 18  1  0  0  0  0
  2 18  1  0  0  0  0
 17 19  1  1  0  0  0
  3 20  1  1  0  0  0
 20 21  1  0  0  0  0
  1 21  1  0  0  0  0
 21 22  1  6  0  0  0
 22 23  1  0  0  0  0
 23 24  1  0  0  0  0
  1 24  1  0  0  0  0
 23 25  1  0  0  0  0
 23 26  1  0  0  0  0
  2 27  1  1  0  0  0
  1 28  1  1  0  0  0
 28 29  1  0  0  0  0
 29 30  1  0  0  0  0
 28 31  2  0  0  0  0
M  END
>  <Name>
Flunisolide

>  <CAS>
3385-03-3

>  <Formula>
C24H31FO6

>  <MolWt>
434.50 

>  <Bioactivity>
Flunisolide (marketed as AeroBid, Nasalide, Nasarel) is a corticosteroid often prescribed as treatment for allergic rhinitis. The principle mechanism of action of flunisolide is to activate glucocorticoid receptors. It also has anti-inflammatory action.


>  <Pathways>
Endocrinology/ Hormones

>  <Target>
Glucocorticoid Receptor agonist

>  <Receptor>
Glucocorticoid receptor

>  <Reference>
1. Hochhaus G, Moellmann HW. Agents Actions. 1990 Jun;30(3-4):377-80. 

$$$$
17575-22-3
  Mrv1561503291623562D          

 69 77  0  0  0  0            999 V2000
    2.5945    4.6266    0.0000 C   0  0  0  0  0  0  0  0  0  0  0  0
    2.3142    5.4026    0.0000 C   0  0  0  0  0  0  0  0  0  0  0  0
    2.8460    6.0333    0.0000 O   0  0  0  0  0  0  0  0  0  0  0  0
    2.5657    6.8092    0.0000 C   0  0  0  0  0  0  0  0  0  0  0  0
    3.0975    7.4399    0.0000 O   0  0  0  0  0  0  0  0  0  0  0  0
    3.9096    7.2947    0.0000 C   0  0  0  0  0  0  0  0  0  0  0  0
    4.4414    7.9254    0.0000 C   0  0  0  0  0  0  0  0  0  0  0  0
    5.2536    7.7802    0.0000 C   0  0  0  0  0  0  0  0  0  0  0  0
    5.5339    7.0043    0.0000 C   0  0  0  0  0  0  0  0  0  0  0  0
    6.3460    6.8590    0.0000 O   0  0  0  0  0  0  0  0  0  0  0  0
    6.6263    6.0831    0.0000 C   0  0  0  0  0  0  0  0  0  0  0  0
    7.4384    5.9379    0.0000 C   0  0  0  0  0  0  0  0  0  0  0  0
    7.7187    5.1620    0.0000 C   0  0  0  0  0  0  0  0  0  0  0  0
    7.1869    4.5313    0.0000 C   0  0  0  0  0  0  0  0  0  0  0  0
    7.4672    3.7553    0.0000 O   0  0  0  0  0  0  0  0  0  0  0  0
    6.9354    3.1246    0.0000 C   0  0  0  0  0  0  0  0  0  0  0  0
    7.2157    2.3487    0.0000 C   0  0  0  0  0  0  0  0  0  0  0  0
    6.6838    1.7180    0.0000 C   0  0  0  0  0  0  0  0  0  0  0  0
    5.8717    1.8632    0.0000 C   0  0  0  0  0  0  0  0  0  0  0  0
    5.3399    1.2325    0.0000 O   0  0  0  0  0  0  0  0  0  0  0  0
    4.5278    1.3777    0.0000 C   0  0  0  0  0  0  0  0  0  0  0  0
    3.9960    0.7470    0.0000 C   0  0  0  0  0  0  0  0  0  0  0  0
    3.1838    0.8922    0.0000 C   0  0  0  0  0  0  0  0  0  0  0  0
    2.9035    1.6682    0.0000 C   0  0  0  0  0  0  0  0  0  0  0  0
    2.0914    1.8134    0.0000 C   0  0  0  0  0  0  0  0  0  0  0  0
    1.5596    1.1827    0.0000 C   0  0  0  0  0  0  0  0  0  0  0  0
    0.7475    1.3279    0.0000 C   0  0  0  0  0  0  0  0  0  0  0  0
    0.4672    2.1038    0.0000 C   0  0  0  0  0  0  0  0  0  0  0  0
   -0.3574    2.0770    0.0000 C   0  0  0  0  0  0  0  0  0  0  0  0
   -0.8637    2.7283    0.0000 C   0  0  0  0  0  0  0  0  0  0  0  0
   -1.6883    2.7015    0.0000 C   0  0  0  0  0  0  0  0  0  0  0  0
   -1.9686    3.4774    0.0000 C   0  0  0  0  0  0  0  0  0  0  0  0
   -2.7611    3.7068    0.0000 O   0  0  0  0  0  0  0  0  0  0  0  0
   -1.3173    3.9838    0.0000 O   0  0  0  0  0  0  0  0  0  0  0  0
   -0.6344    3.5208    0.0000 C   0  0  0  0  0  0  0  0  0  0  0  0
   -0.5867    1.2845    0.0000 C   0  0  0  0  0  0  0  0  0  0  0  0
    0.0962    0.8215    0.0000 C   0  0  0  0  0  0  0  0  0  0  0  0
    0.9990    2.7345    0.0000 C   0  0  0  0  0  0  0  0  0  0  0  0
    1.8111    2.5893    0.0000 C   0  0  0  0  0  0  0  0  0  0  0  0
    0.7187    3.5104    0.0000 O   0  0  0  0  0  0  0  0  0  0  0  0
    0.1073    2.8462    0.0000 C   0  0  0  0  0  0  0  0  0  0  0  0
    0.9451    0.5269    0.0000 O   0  0  0  0  0  0  0  0  0  0  0  0
    1.8399    0.4067    0.0000 C   0  0  0  0  0  0  0  0  0  0  0  0
    2.6520    0.2615    0.0000 C   0  0  0  0  0  0  0  0  0  0  0  0
    3.4354    2.2989    0.0000 C   0  0  0  0  0  0  0  0  0  0  0  0
    4.2475    2.1537    0.0000 C   0  0  0  0  0  0  0  0  0  0  0  0
    2.6232    2.4441    0.0000 C   0  0  0  0  0  0  0  0  0  0  0  0
    5.5914    2.6391    0.0000 O   0  0  0  0  0  0  0  0  0  0  0  0
    6.1232    3.2699    0.0000 C   0  0  0  0  0  0  0  0  0  0  0  0
    5.8429    4.0458    0.0000 C   0  0  0  0  0  0  0  0  0  0  0  0
    8.0278    2.2035    0.0000 O   0  0  0  0  0  0  0  0  0  0  0  0
    6.3748    4.6765    0.0000 O   0  0  0  0  0  0  0  0  0  0  0  0
    6.0945    5.4524    0.0000 C   0  0  0  0  0  0  0  0  0  0  0  0
    5.2823    5.5976    0.0000 C   0  0  0  0  0  0  0  0  0  0  0  0
    7.9702    6.5686    0.0000 O   0  0  0  0  0  0  0  0  0  0  0  0
    5.0020    6.3735    0.0000 O   0  0  0  0  0  0  0  0  0  0  0  0
    4.1899    6.5188    0.0000 C   0  0  0  0  0  0  0  0  0  0  0  0
    3.6581    5.8881    0.0000 C   0  0  0  0  0  0  0  0  0  0  0  0
    4.1611    8.7013    0.0000 O   0  0  0  0  0  0  0  0  0  0  0  0
    3.3490    8.8465    0.0000 C   0  0  0  0  0  0  0  0  0  0  0  0
    2.8172    8.2158    0.0000 C   0  0  0  0  0  0  0  0  0  0  0  0
    3.0687    9.6225    0.0000 O   0  0  0  0  0  0  0  0  0  0  0  0
    1.7536    6.9544    0.0000 C   0  0  0  0  0  0  0  0  0  0  0  0
    1.2218    6.3237    0.0000 C   0  0  0  0  0  0  0  0  0  0  0  0
    0.4096    6.4689    0.0000 O   0  0  0  0  0  0  0  0  0  0  0  0
    1.5021    5.5478    0.0000 C   0  0  0  0  0  0  0  0  0  0  0  0
    0.9702    4.9171    0.0000 O   0  0  0  0  0  0  0  0  0  0  0  0
    1.4733    7.7303    0.0000 O   0  0  0  0  0  0  0  0  0  0  0  0
    2.0626    3.9959    0.0000 O   0  0  0  0  0  0  0  0  0  0  0  0
  1  2  1  0  0  0  0
  2  3  1  0  0  0  0
  3  4  1  0  0  0  0
  4  5  1  0  0  0  0
  5  6  1  0  0  0  0
  6  7  1  0  0  0  0
  7  8  1  0  0  0  0
  8  9  1  0  0  0  0
  9 10  1  0  0  0  0
 10 11  1  0  0  0  0
 11 12  1  0  0  0  0
 12 13  1  0  0  0  0
 13 14  1  0  0  0  0
 14 15  1  0  0  0  0
 15 16  1  0  0  0  0
 16 17  1  0  0  0  0
 17 18  1  0  0  0  0
 18 19  1  0  0  0  0
 19 20  1  0  0  0  0
 20 21  1  0  0  0  0
 21 22  1  0  0  0  0
 22 23  1  0  0  0  0
 23 24  1  0  0  0  0
 24 25  1  0  0  0  0
 25 26  1  0  0  0  0
 26 27  1  0  0  0  0
 27 28  1  0  0  0  0
 28 29  1  0  0  0  0
 29 30  1  0  0  0  0
 30 31  2  0  0  0  0
 31 32  1  0  0  0  0
 32 33  2  0  0  0  0
 32 34  1  0  0  0  0
 34 35  1  0  0  0  0
 30 35  1  0  0  0  0
 29 36  1  0  0  0  0
 36 37  1  0  0  0  0
 27 37  1  0  0  0  0
 28 38  1  0  0  0  0
 38 39  1  0  0  0  0
 25 39  1  0  0  0  0
 38 40  1  0  0  0  0
 28 41  1  0  0  0  0
 27 42  1  0  0  0  0
 26 43  1  0  0  0  0
 43 44  1  0  0  0  0
 23 44  1  0  0  0  0
 24 45  1  0  0  0  0
 45 46  1  0  0  0  0
 21 46  1  0  0  0  0
 24 47  1  0  0  0  0
 19 48  1  0  0  0  0
 48 49  1  0  0  0  0
 16 49  1  0  0  0  0
 49 50  1  0  0  0  0
 17 51  1  0  0  0  0
 14 52  1  0  0  0  0
 52 53  1  0  0  0  0
 11 53  1  0  0  0  0
 53 54  1  0  0  0  0
 12 55  1  0  0  0  0
  9 56  1  0  0  0  0
 56 57  1  0  0  0  0
  6 57  1  0  0  0  0
 57 58  1  0  0  0  0
  7 59  1  0  0  0  0
 59 60  1  0  0  0  0
 60 61  1  0  0  0  0
 60 62  2  0  0  0  0
  4 63  1  0  0  0  0
 63 64  1  0  0  0  0
 64 65  1  0  0  0  0
 64 66  1  0  0  0  0
  2 66  1  0  0  0  0
 66 67  1  0  0  0  0
 63 68  1  0  0  0  0
  1 69  1  0  0  0  0
M  END
>  <Name>
Lanatoside C

>  <CAS>
17575-22-3

>  <Formula>
C49H76O20

>  <MolWt>
985.12 

>  <Bioactivity>
Lanatoside C is a cardiac glycoside, a type of drug that can be used in the treatment of congestive heart failure and cardiac arrhythmia (irregular heartbeat). Lanatoside C can be used orally or by the intravenous route. 

>  <Pathways>
Membrane Transporter/Ion Channel

>  <Target>
ATPase inhibitor

>  <Receptor>
Na+, K+-ATPase

>  <Reference>
1. Lypka A, Lazowski J. Wiad Lek. 1979 Sep 15;32(18):1277-81.

$$$$
77337-73-6
  Mrv1561503291623562D          

 23 20  0  0  0  0            999 V2000
   -0.4125    0.5954    0.0000 C   0  0  0  0  0  0  0  0  0  0  0  0
   -1.2375    0.5954    0.0000 S   0  0  0  0  0  0  0  0  0  0  0  0
   -2.0625    0.5954    0.0000 O   0  5  0  0  0  0  0  0  0  0  0  0
   -1.2375    1.4204    0.0000 O   0  0  0  0  0  0  0  0  0  0  0  0
   -1.2375   -0.2296    0.0000 O   0  0  0  0  0  0  0  0  0  0  0  0
    0.0000   -0.1191    0.0000 C   0  0  0  0  0  0  0  0  0  0  0  0
    0.8250   -0.1191    0.0000 C   0  0  0  0  0  0  0  0  0  0  0  0
    1.2375   -0.8335    0.0000 N   0  0  0  0  0  0  0  0  0  0  0  0
    2.0625   -0.8335    0.0000 C   0  0  0  0  0  0  0  0  0  0  0  0
    2.4750   -1.5480    0.0000 O   0  0  0  0  0  0  0  0  0  0  0  0
    2.4750   -0.1191    0.0000 C   0  0  0  0  0  0  0  0  0  0  0  0
    5.6571    0.9093    0.0000 C   0  0  0  0  0  0  0  0  0  0  0  0
    6.0696    1.6238    0.0000 S   0  0  0  0  0  0  0  0  0  0  0  0
    6.4821    2.3383    0.0000 O   0  5  0  0  0  0  0  0  0  0  0  0
    5.3552    2.0363    0.0000 O   0  0  0  0  0  0  0  0  0  0  0  0
    6.7841    1.2113    0.0000 O   0  0  0  0  0  0  0  0  0  0  0  0
    6.0696    0.1949    0.0000 C   0  0  0  0  0  0  0  0  0  0  0  0
    5.6571   -0.5196    0.0000 C   0  0  0  0  0  0  0  0  0  0  0  0
    6.0696   -1.2341    0.0000 N   0  0  0  0  0  0  0  0  0  0  0  0
    5.6571   -1.9486    0.0000 C   0  0  0  0  0  0  0  0  0  0  0  0
    6.0696   -2.6630    0.0000 O   0  0  0  0  0  0  0  0  0  0  0  0
    4.8321   -1.9486    0.0000 C   0  0  0  0  0  0  0  0  0  0  0  0
   -2.8875    0.5954    0.0000 Ca  0  2  0  0  0  0  0  0  0  0  0  0
  1  2  1  0  0  0  0
  2  3  1  0  0  0  0
  2  4  2  0  0  0  0
  2  5  2  0  0  0  0
  1  6  1  0  0  0  0
  6  7  1  0  0  0  0
  7  8  1  0  0  0  0
  8  9  1  0  0  0  0
  9 10  2  0  0  0  0
  9 11  1  0  0  0  0
 12 13  1  0  0  0  0
 13 14  1  0  0  0  0
 13 15  2  0  0  0  0
 13 16  2  0  0  0  0
 12 17  1  0  0  0  0
 17 18  1  0  0  0  0
 18 19  1  0  0  0  0
 19 20  1  0  0  0  0
 20 21  2  0  0  0  0
 20 22  1  0  0  0  0
M  CHG  3   3  -1  14  -1  23   2
M  END
>  <Name>
Acamprosate calcium

>  <CAS>
77337-73-6

>  <Formula>
C10H20CaN2O8S2

>  <MolWt>
400.48 

>  <Bioactivity>
Acamprosate, also known by the brand name Campral™, is a drug used for treating alcohol dependence. Acamprosate is thought to stabilize the chemical balance in the brain that would otherwise be disrupted by alcoholism, possibly by blocking glutaminergic N-methyl-D-aspartate receptors, while gamma-aminobutyric acid type A receptors are activated. Reports indicate that acamprosate only works with a combination of attending support groups and abstinence from alcohol. Certain serious side effects include allergic reactions, irregular heartbeats, and low or high blood pressure, while less serious side effects include headaches, insomnia, and impotence. Acamprosate should not be taken by people with kidney problems or allergies to the drug. 

>  <Pathways>
Neuroscience

>  <Target>
GABAR modulator

>  <Receptor>
GABA-A receptor

>  <Reference>
1. Williams SH. Am Fam Physician. 2005 Nov 1;72(9):1775-80.

$$$$
T2409
  Mrv1561503291623562D          

 33 35  0  0  0  0            999 V2000
   -5.7080    5.5349    0.0000 C   0  0  0  0  0  0  0  0  0  0  0  0
   -4.9010    5.3633    0.0000 C   0  0  0  0  0  0  0  0  0  0  0  0
   -4.3490    5.9764    0.0000 C   0  0  0  0  0  0  0  0  0  0  0  0
   -4.6461    4.5787    0.0000 O   0  0  0  0  0  0  0  0  0  0  0  0
   -3.8391    4.4072    0.0000 C   0  0  0  0  0  0  0  0  0  0  0  0
   -3.2871    5.0203    0.0000 O   0  0  0  0  0  0  0  0  0  0  0  0
   -3.5842    3.6226    0.0000 C   0  0  0  0  0  0  0  0  0  0  0  0
   -4.1362    3.0095    0.0000 C   0  0  0  0  0  0  0  0  0  0  0  0
   -2.7772    3.4510    0.0000 N   0  0  0  0  0  0  0  0  0  0  0  0
   -2.5223    2.6664    0.0000 P   0  0  0  0  0  0  0  0  0  0  0  0
   -3.3069    2.4115    0.0000 O   0  0  0  0  0  0  0  0  0  0  0  0
   -2.2673    1.8818    0.0000 C   0  0  0  0  0  0  0  0  0  0  0  0
   -1.4604    1.7103    0.0000 O   0  0  0  0  0  0  0  0  0  0  0  0
   -1.2054    0.9256    0.0000 C   0  0  0  0  0  0  0  0  0  0  0  0
   -1.7575    0.3126    0.0000 C   0  0  0  0  0  0  0  0  0  0  0  0
   -0.3984    0.7541    0.0000 C   0  0  0  0  0  0  0  0  0  0  0  0
   -0.1435   -0.0305    0.0000 N   0  0  0  0  0  0  0  0  0  0  0  0
   -0.6284   -0.6979    0.0000 C   0  0  0  0  0  0  0  0  0  0  0  0
   -0.1435   -1.3654    0.0000 N   0  0  0  0  0  0  0  0  0  0  0  0
    0.6411   -1.1104    0.0000 C   0  0  0  0  0  0  0  0  0  0  0  0
    0.6411   -0.2854    0.0000 C   0  0  0  0  0  0  0  0  0  0  0  0
    1.3556    0.1271    0.0000 N   0  0  0  0  0  0  0  0  0  0  0  0
    2.0701   -0.2854    0.0000 C   0  0  0  0  0  0  0  0  0  0  0  0
    2.0701   -1.1104    0.0000 N   0  0  0  0  0  0  0  0  0  0  0  0
    1.3556   -1.5229    0.0000 C   0  0  0  0  0  0  0  0  0  0  0  0
    1.3556   -2.3479    0.0000 N   0  0  0  0  0  0  0  0  0  0  0  0
   -1.7376    2.9214    0.0000 O   0  0  0  0  0  0  0  0  0  0  0  0
   -1.5661    3.7283    0.0000 C   0  0  0  0  0  0  0  0  0  0  0  0
   -2.1792    4.2804    0.0000 C   0  0  0  0  0  0  0  0  0  0  0  0
   -2.0077    5.0873    0.0000 C   0  0  0  0  0  0  0  0  0  0  0  0
   -1.2231    5.3423    0.0000 C   0  0  0  0  0  0  0  0  0  0  0  0
   -0.6100    4.7902    0.0000 C   0  0  0  0  0  0  0  0  0  0  0  0
   -0.7815    3.9833    0.0000 C   0  0  0  0  0  0  0  0  0  0  0  0
  1  2  1  0  0  0  0
  2  3  1  0  0  0  0
  2  4  1  0  0  0  0
  4  5  1  0  0  0  0
  5  6  2  0  0  0  0
  5  7  1  0  0  0  0
  7  8  1  0  0  0  0
  7  9  1  0  0  0  0
  9 10  1  0  0  0  0
 10 11  2  0  0  0  0
 10 12  1  0  0  0  0
 12 13  1  0  0  0  0
 13 14  1  0  0  0  0
 14 15  1  0  0  0  0
 14 16  1  0  0  0  0
 16 17  1  0  0  0  0
 17 18  1  0  0  0  0
 18 19  2  0  0  0  0
 19 20  1  0  0  0  0
 20 21  2  0  0  0  0
 17 21  1  0  0  0  0
 21 22  1  0  0  0  0
 22 23  2  0  0  0  0
 23 24  1  0  0  0  0
 24 25  2  0  0  0  0
 20 25  1  0  0  0  0
 25 26  1  0  0  0  0
 10 27  1  0  0  0  0
 27 28  1  0  0  0  0
 28 29  2  0  0  0  0
 29 30  1  0  0  0  0
 30 31  2  0  0  0  0
 31 32  1  0  0  0  0
 32 33  2  0  0  0  0
 28 33  1  0  0  0  0
M  END
>  <Name>
GS-7340 Tenofovir alafenamide

>  <CAS>
379270-37-8

>  <Formula>
C21H29N6O5P

>  <MolWt>
476.47 

>  <Bioactivity>
Tenofovir Alafenamide (GS-7340) is a prodrug of tenofovir, which is a reverse transcriptase inhibitor, used to treat HIV and Hepatitis B.

>  <Pathways>
DNA Damage/DNA Repair;Microbiology & Virology

>  <Target>
Reverse Transcriptase inhibitor

>  <Receptor>
Reverse Transcriptase

>  <Reference>
1. Chapman H, et al. Nucleosides Nucleotides Nucleic Acids. 2001, 20(4-7), 1085-10[90.

$$$$
554-57-4
  Mrv1561503291623562D          

 14 14  0  0  0  0            999 V2000
    0.5678    1.9393    0.0000 C   0  0  0  0  0  0  0  0  0  0  0  0
    0.5678    1.1143    0.0000 N   0  0  0  0  0  0  0  0  0  0  0  0
    1.2352    0.6294    0.0000 C   0  0  0  0  0  0  0  0  0  0  0  0
    0.9803   -0.1553    0.0000 S   0  0  0  0  0  0  0  0  0  0  0  0
    0.1553   -0.1553    0.0000 C   0  0  0  0  0  0  0  0  0  0  0  0
   -0.0997    0.6294    0.0000 N   0  0  0  0  0  0  0  0  0  0  0  0
   -0.3297   -0.8227    0.0000 S   0  0  0  0  0  0  0  0  0  0  0  0
   -0.8146   -1.4901    0.0000 N   0  0  0  0  0  0  0  0  0  0  0  0
    0.3378   -1.3076    0.0000 O   0  0  0  0  0  0  0  0  0  0  0  0
   -0.9971   -0.3378    0.0000 O   0  0  0  0  0  0  0  0  0  0  0  0
    2.0198    0.8843    0.0000 N   0  0  0  0  0  0  0  0  0  0  0  0
    2.1913    1.6913    0.0000 C   0  0  0  0  0  0  0  0  0  0  0  0
    1.5783    2.2433    0.0000 C   0  0  0  0  0  0  0  0  0  0  0  0
    2.9760    1.9462    0.0000 O   0  0  0  0  0  0  0  0  0  0  0  0
  1  2  1  0  0  0  0
  2  3  1  0  0  0  0
  3  4  1  0  0  0  0
  4  5  1  0  0  0  0
  5  6  2  0  0  0  0
  2  6  1  0  0  0  0
  5  7  1  0  0  0  0
  7  8  1  0  0  0  0
  7  9  2  0  0  0  0
  7 10  2  0  0  0  0
  3 11  2  0  0  0  0
 11 12  1  4  0  0  0
 12 13  1  0  0  0  0
 12 14  2  0  0  0  0
M  END
>  <Name>
Methazolamide

>  <CAS>
554-57-4

>  <Formula>
C5H8N4O3S2

>  <MolWt>
236.27 

>  <Bioactivity>
A carbonic anhydrase inhibitor that is used as a diuretic and in the treatment of glaucoma.

>  <Pathways>
Metabolism

>  <Target>
Carbonic anhydrase inhibitor

>  <Receptor>
CA

>  <Reference>
1. Casini A, et al. Bioorg Med Chem Lett, 2003, 13(5), 841-845.

$$$$
98-72-6
  Mrv1561503291623562D          

 13 13  0  0  0  0            999 V2000
    1.4289    0.8250    0.0000 C   0  0  0  0  0  0  0  0  0  0  0  0
    1.4289    0.0000    0.0000 C   0  0  0  0  0  0  0  0  0  0  0  0
    0.7145   -0.4125    0.0000 C   0  0  0  0  0  0  0  0  0  0  0  0
   -0.0000    0.0000    0.0000 C   0  0  0  0  0  0  0  0  0  0  0  0
   -0.0000    0.8250    0.0000 C   0  0  0  0  0  0  0  0  0  0  0  0
    0.7145    1.2375    0.0000 C   0  0  0  0  0  0  0  0  0  0  0  0
    0.7145    2.0625    0.0000 As  0  0  0  0  0  0  0  0  0  0  0  0
    0.7145    2.8875    0.0000 O   0  0  0  0  0  0  0  0  0  0  0  0
   -0.1105    2.0625    0.0000 O   0  0  0  0  0  0  0  0  0  0  0  0
    1.5395    2.0625    0.0000 O   0  0  0  0  0  0  0  0  0  0  0  0
    0.7145   -1.2375    0.0000 N   0  3  0  0  0  0  0  0  0  0  0  0
    1.4289   -1.6500    0.0000 O   0  0  0  0  0  0  0  0  0  0  0  0
   -0.0000   -1.6500    0.0000 O   0  5  0  0  0  0  0  0  0  0  0  0
  1  2  2  0  0  0  0
  2  3  1  0  0  0  0
  3  4  2  0  0  0  0
  4  5  1  0  0  0  0
  5  6  2  0  0  0  0
  1  6  1  0  0  0  0
  6  7  1  0  0  0  0
  7  8  1  0  0  0  0
  7  9  1  0  0  0  0
  7 10  2  0  0  0  0
  3 11  1  0  0  0  0
 11 12  2  0  0  0  0
 11 13  1  0  0  0  0
M  CHG  2  11   1  13  -1
M  END
>  <Name>
Nitarsone

>  <CAS>
98-72-6

>  <Formula>
C6H6AsNO5

>  <MolWt>
247.04 

>  <Bioactivity>
Nitarsone is an organoarsenic compound that is used in poultry production as a feed additive to increase weight gain, improve feed efficiency, and prevent blackhead disease.

>  <Pathways>
Others

>  <Target>
Others

>  <Receptor>
Others

>  <Reference>
1. Xiao YB, et al. Guang Pu Xue Yu Guang Pu Fen Xi. 2014 Apr;34(4):1100-3.

$$$$
T1428
  Mrv1561503291623562D          

 20 21  0  0  0  0            999 V2000
    0.7145   -0.4125    0.0000 C   0  0  0  0  0  0  0  0  0  0  0  0
    0.7145   -1.2375    0.0000 C   0  0  0  0  0  0  0  0  0  0  0  0
    1.3819   -1.7224    0.0000 O   0  0  0  0  0  0  0  0  0  0  0  0
    1.1270   -2.5070    0.0000 C   0  0  0  0  0  0  0  0  0  0  0  0
    1.6119   -3.1745    0.0000 N   0  0  0  0  0  0  0  0  0  0  0  0
    2.4324   -3.0882    0.0000 C   0  0  0  0  0  0  0  0  0  0  0  0
    2.9173   -3.7557    0.0000 C   0  0  0  0  0  0  0  0  0  0  0  0
    2.5817   -4.5094    0.0000 C   0  0  0  0  0  0  0  0  0  0  0  0
    3.0667   -5.1768    0.0000 O   0  0  0  0  0  0  0  0  0  0  0  0
    1.7613   -4.5956    0.0000 N   0  0  0  0  0  0  0  0  0  0  0  0
    1.2763   -3.9282    0.0000 C   0  0  0  0  0  0  0  0  0  0  0  0
    0.4559   -4.0144    0.0000 O   0  0  0  0  0  0  0  0  0  0  0  0
    3.7378   -3.6695    0.0000 C   0  0  0  0  0  0  0  0  0  0  0  0
    4.5583   -3.5832    0.0000 F   0  0  0  0  0  0  0  0  0  0  0  0
    3.8240   -4.4899    0.0000 F   0  0  0  0  0  0  0  0  0  0  0  0
    3.6515   -2.8490    0.0000 F   0  0  0  0  0  0  0  0  0  0  0  0
    0.3020   -2.5070    0.0000 C   0  0  0  0  0  0  0  0  0  0  0  0
    0.0470   -1.7224    0.0000 C   0  0  0  0  0  0  0  0  0  0  0  0
   -0.7376   -1.4675    0.0000 O   0  0  0  0  0  0  0  0  0  0  0  0
   -0.0000    0.0000    0.0000 O   0  0  0  0  0  0  0  0  0  0  0  0
  1  2  1  0  0  0  0
  2  3  1  0  0  0  0
  3  4  1  0  0  0  0
  4  5  1  0  0  0  0
  5  6  1  0  0  0  0
  6  7  2  0  0  0  0
  7  8  1  0  0  0  0
  8  9  2  0  0  0  0
  8 10  1  0  0  0  0
 10 11  1  0  0  0  0
  5 11  1  0  0  0  0
 11 12  2  0  0  0  0
  7 13  1  0  0  0  0
 13 14  1  0  0  0  0
 13 15  1  0  0  0  0
 13 16  1  0  0  0  0
  4 17  1  0  0  0  0
 17 18  1  0  0  0  0
  2 18  1  0  0  0  0
 18 19  1  0  0  0  0
  1 20  1  0  0  0  0
M  END
>  <Name>
Trifluridine

>  <CAS>
70-00-8

>  <Formula>
C10H11F3N2O5

>  <MolWt>
296.20 

>  <Bioactivity>
An antiviral derivative of thymidine used mainly in the treatment of primary keratoconjunctivitis and recurrent epithelial keratitis due to herpes simplex virus. (From Martindale, The Extra Pharmacopoeia, 30th ed, p557)

>  <Pathways>
DNA Damage/DNA Repair

>  <Target>
DNA/RNA Synthesis inhibitor; Thymidylate synthase inhibitor

>  <Receptor>
Thymidylate synthase;DNA

>  <Reference>
1. Shintani M, et al. Oncol Rep. 2010 May; 23(5):1345-50. 

$$$$

  Mrv1561503291623562D          

  0  0  0  0  0  0            999 V2000
M  END
>  <Name>
LCZ696

>  <CAS>
936623-90-4

>  <Formula>
C24H29N5O3.C24H29NO5.5/2H2O.3Na

>  <MolWt>
915.98 

>  <Bioactivity>
LCZ696, consisting of valsartan and sacubitril in 1:1 molar ratio, is an orally bioavailable, dual-acting angiotensin receptor-neprilysin inhibitor (ARNi) for hypertension and heart failure. Phase 3.

>  <Pathways>
Angiogenesis;Endocrinology/ Hormones

>  <Target>
RAAS inhibitor; ACE inhibitor

>  <Receptor>
RAAS

>  <Reference>
1. Gu J, et al. J Clin Pharmacol. 2010, 50(4), 401-414.2. von Lueder TG, et al. Circ Heart Fail. 2015 Jan;8(1):71-8.

$$$$
56-59-7
  Mrv1561503291623562D          

 72 75  0  0  0  0            999 V2000
   12.1540   -0.9244    0.0000 C   0  0  0  0  0  0  0  0  0  0  0  0
   11.6019   -1.5375    0.0000 C   0  0  0  0  0  0  0  0  0  0  0  0
   10.7950   -1.3660    0.0000 C   0  0  0  0  0  0  0  0  0  0  0  0
   10.5400   -0.5814    0.0000 C   0  0  0  0  0  0  0  0  0  0  0  0
   11.0921    0.0317    0.0000 C   0  0  0  0  0  0  0  0  0  0  0  0
   11.8990   -0.1398    0.0000 C   0  0  0  0  0  0  0  0  0  0  0  0
   12.4511    0.4733    0.0000 C   0  0  0  0  0  0  0  0  0  0  0  0
   12.1961    1.2579    0.0000 C   0  0  0  0  0  0  0  0  0  0  0  0
   11.6441    0.6448    0.0000 N   0  0  0  0  0  0  0  0  0  0  0  0
   10.8371    0.8163    0.0000 C   0  0  0  0  0  0  0  0  0  0  0  0
   10.5822    1.6009    0.0000 C   0  0  0  0  0  0  0  0  0  0  0  0
   11.1342    2.2140    0.0000 C   0  0  0  0  0  0  0  0  0  0  0  0
   10.8793    2.9987    0.0000 S   0  0  0  0  0  0  0  0  0  0  0  0
   11.4313    3.6118    0.0000 S   0  0  0  0  0  0  0  0  0  0  0  0
   11.1764    4.3964    0.0000 C   0  0  0  0  0  0  0  0  0  0  0  0
   11.7284    5.0095    0.0000 C   0  0  0  0  0  0  0  0  0  0  0  0
   10.9214    5.1810    0.0000 C   0  0  0  0  0  0  0  0  0  0  0  0
   10.3694    4.5679    0.0000 N   0  0  0  0  0  0  0  0  0  0  0  0
    9.5489    4.6541    0.0000 C   0  0  0  0  0  0  0  0  0  0  0  0
    9.1364    5.3686    0.0000 C   0  0  0  0  0  0  0  0  0  0  0  0
    8.3114    5.3686    0.0000 N   0  0  0  0  0  0  0  0  0  0  0  0
    7.8989    6.0831    0.0000 C   0  0  0  0  0  0  0  0  0  0  0  0
    7.0739    6.0831    0.0000 C   0  0  0  0  0  0  0  0  0  0  0  0
    6.6614    6.7976    0.0000 N   0  0  0  0  0  0  0  0  0  0  0  0
    5.8364    6.7976    0.0000 C   0  0  0  0  0  0  0  0  0  0  0  0
    5.4239    7.5120    0.0000 C   0  0  0  0  0  0  0  0  0  0  0  0
    4.5989    7.5120    0.0000 N   0  0  0  0  0  0  0  0  0  0  0  0
    5.8364    8.2265    0.0000 O   0  0  0  0  0  0  0  0  0  0  0  0
    6.6614    5.3686    0.0000 O   0  0  0  0  0  0  0  0  0  0  0  0
    8.3114    6.7976    0.0000 C   0  0  0  0  0  0  0  0  0  0  0  0
    9.1364    6.7976    0.0000 C   0  0  0  0  0  0  0  0  0  0  0  0
    9.5489    7.5120    0.0000 C   0  0  0  0  0  0  0  0  0  0  0  0
   10.3739    7.5120    0.0000 C   0  0  0  0  0  0  0  0  0  0  0  0
   10.7864    8.2265    0.0000 N   0  0  0  0  0  0  0  0  0  0  0  0
    9.5489    6.0831    0.0000 O   0  0  0  0  0  0  0  0  0  0  0  0
    9.2134    3.9005    0.0000 C   0  0  0  0  0  0  0  0  0  0  0  0
    9.8265    3.3484    0.0000 C   0  0  0  0  0  0  0  0  0  0  0  0
   10.5409    3.7609    0.0000 C   0  0  0  0  0  0  0  0  0  0  0  0
   10.6665    5.9656    0.0000 O   0  0  0  0  0  0  0  0  0  0  0  0
   11.4735    5.7941    0.0000 N   0  0  0  0  0  0  0  0  0  0  0  0
   12.0255    6.4072    0.0000 C   0  0  0  0  0  0  0  0  0  0  0  0
   12.8325    6.2357    0.0000 C   0  0  0  0  0  0  0  0  0  0  0  0
   13.0874    5.4510    0.0000 N   0  0  0  0  0  0  0  0  0  0  0  0
   13.8944    5.2795    0.0000 C   0  0  0  0  0  0  0  0  0  0  0  0
   14.1493    4.4949    0.0000 C   0  0  0  0  0  0  0  0  0  0  0  0
   13.5973    3.8818    0.0000 N   0  0  0  0  0  0  0  0  0  0  0  0
   13.8522    3.0972    0.0000 C   0  0  0  0  0  0  0  0  0  0  0  0
   13.3002    2.4841    0.0000 C   0  0  0  0  0  0  0  0  0  0  0  0
   14.1072    2.3126    0.0000 C   0  0  0  0  0  0  0  0  0  0  0  0
   14.3621    1.5279    0.0000 C   0  0  0  0  0  0  0  0  0  0  0  0
   15.1691    1.3564    0.0000 C   0  0  0  0  0  0  0  0  0  0  0  0
   15.4240    0.5718    0.0000 C   0  0  0  0  0  0  0  0  0  0  0  0
   14.8720   -0.0413    0.0000 C   0  0  0  0  0  0  0  0  0  0  0  0
   14.0650    0.1302    0.0000 C   0  0  0  0  0  0  0  0  0  0  0  0
   13.8101    0.9148    0.0000 C   0  0  0  0  0  0  0  0  0  0  0  0
   13.5551    1.6995    0.0000 N   0  0  0  0  0  0  0  0  0  0  0  0
   13.0031    1.0864    0.0000 C   0  0  0  0  0  0  0  0  0  0  0  0
   13.2580    0.3017    0.0000 O   0  0  0  0  0  0  0  0  0  0  0  0
   14.6592    2.9256    0.0000 O   0  0  0  0  0  0  0  0  0  0  0  0
   14.9563    4.3234    0.0000 C   0  0  0  0  0  0  0  0  0  0  0  0
   15.2112    3.5387    0.0000 C   0  0  0  0  0  0  0  0  0  0  0  0
   16.0182    3.3672    0.0000 C   0  0  0  0  0  0  0  0  0  0  0  0
   16.5702    3.9803    0.0000 N   0  0  0  0  0  0  0  0  0  0  0  0
   16.2731    2.5826    0.0000 O   0  0  0  0  0  0  0  0  0  0  0  0
   14.4464    5.8926    0.0000 O   0  0  0  0  0  0  0  0  0  0  0  0
   13.3845    6.8488    0.0000 C   0  0  0  0  0  0  0  0  0  0  0  0
   13.1296    7.6334    0.0000 C   0  0  0  0  0  0  0  0  0  0  0  0
   12.3226    7.8049    0.0000 N   0  0  0  0  0  0  0  0  0  0  0  0
   13.6816    8.2465    0.0000 O   0  0  0  0  0  0  0  0  0  0  0  0
   11.7706    7.1918    0.0000 O   0  0  0  0  0  0  0  0  0  0  0  0
    9.7752    1.7725    0.0000 N   0  0  0  0  0  0  0  0  0  0  0  0
   10.2851    0.2032    0.0000 O   0  0  0  0  0  0  0  0  0  0  0  0
  1  2  2  0  0  0  0
  2  3  1  0  0  0  0
  3  4  2  0  0  0  0
  4  5  1  0  0  0  0
  5  6  2  0  0  0  0
  1  6  1  0  0  0  0
  6  7  1  0  0  0  0
  7  8  1  0  0  0  0
  8  9  1  0  0  0  0
  9 10  1  0  0  0  0
 10 11  1  0  0  0  0
 11 12  1  0  0  0  0
 12 13  1  0  0  0  0
 13 14  1  0  0  0  0
 14 15  1  0  0  0  0
 15 16  1  0  0  0  0
 16 17  1  0  0  0  0
 17 18  1  0  0  0  0
 18 19  1  0  0  0  0
 19 20  1  0  0  0  0
 20 21  1  0  0  0  0
 21 22  1  0  0  0  0
 22 23  1  0  0  0  0
 23 24  1  0  0  0  0
 24 25  1  0  0  0  0
 25 26  1  0  0  0  0
 26 27  1  0  0  0  0
 26 28  2  0  0  0  0
 23 29  2  0  0  0  0
 22 30  1  0  0  0  0
 30 31  1  0  0  0  0
 31 32  1  0  0  0  0
 32 33  1  0  0  0  0
 33 34  1  0  0  0  0
 20 35  2  0  0  0  0
 19 36  1  0  0  0  0
 36 37  1  0  0  0  0
 37 38  1  0  0  0  0
 18 38  1  0  0  0  0
 17 39  2  0  0  0  0
 16 40  1  0  0  0  0
 40 41  1  0  0  0  0
 41 42  1  0  0  0  0
 42 43  1  0  0  0  0
 43 44  1  0  0  0  0
 44 45  1  0  0  0  0
 45 46  1  0  0  0  0
 46 47  1  0  0  0  0
 47 48  1  0  0  0  0
 48 49  1  0  0  0  0
 49 50  1  0  0  0  0
 50 51  2  0  0  0  0
 51 52  1  0  0  0  0
 52 53  2  0  0  0  0
 53 54  1  0  0  0  0
 54 55  2  0  0  0  0
 50 55  1  0  0  0  0
 48 56  1  0  0  0  0
 56 57  1  0  0  0  0
  8 57  1  0  0  0  0
 57 58  2  0  0  0  0
 47 59  2  0  0  0  0
 45 60  1  0  0  0  0
 60 61  1  0  0  0  0
 61 62  1  0  0  0  0
 62 63  1  0  0  0  0
 62 64  2  0  0  0  0
 44 65  2  0  0  0  0
 42 66  1  0  0  0  0
 66 67  1  0  0  0  0
 67 68  1  0  0  0  0
 67 69  2  0  0  0  0
 41 70  2  0  0  0  0
 11 71  1  0  0  0  0
 10 72  2  0  0  0  0
M  END
>  <Name>
Felypressin

>  <CAS>
56-59-7

>  <Formula>
C46H65N13O11S2

>  <MolWt>
1040.22 

>  <Bioactivity>
It is used as a vasoconstrictor in local anaesthetic injections for dental use, and is an ingredient of preparations that have been used for treatment of pain and inflammation of the mouth.

>  <Pathways>
Endocrinology/ Hormones

>  <Target>
Vasopressin Receptor agonist

>  <Receptor>
Vasopressin V1a receptor

>  <Reference>
1. Akkerman JW, van den Hoven WE. Drugs. 1987;33 Suppl 2:53-9.

$$$$
T2331
  Mrv1561503291623562D          

 60 64  0  0  0  0            999 V2000
    0.5057   -1.4379    0.0000 C   0  0  0  0  0  0  0  0  0  0  0  0
    0.2959   -0.6400    0.0000 C   0  0  0  0  0  0  0  0  0  0  0  0
    0.8821   -0.0594    0.0000 C   0  0  0  0  0  0  0  0  0  0  0  0
    0.0862    0.1579    0.0000 C   0  0  0  0  0  0  0  0  0  0  0  0
   -0.1235    0.9558    0.0000 C   0  0  0  0  0  0  0  0  0  0  0  0
    0.4626    1.5364    0.0000 C   0  0  0  0  0  0  0  0  0  0  0  0
    1.2585    1.3191    0.0000 C   0  0  0  0  0  0  0  0  0  0  0  0
    1.4682    0.5212    0.0000 O   0  0  0  0  0  0  0  0  0  0  0  0
    1.8446    1.8996    0.0000 C   0  0  0  0  0  0  0  0  0  0  0  0
    2.6405    1.6823    0.0000 C   0  0  0  0  0  0  0  0  0  0  0  0
    2.8502    0.8844    0.0000 C   0  0  0  0  0  0  0  0  0  0  0  0
    3.6461    0.6671    0.0000 C   0  0  0  0  0  0  0  0  0  0  0  0
    3.8558   -0.1308    0.0000 C   0  0  0  0  0  0  0  0  0  0  0  0
    3.2697   -0.7114    0.0000 C   0  0  0  0  0  0  0  0  0  0  0  0
    3.4794   -1.5093    0.0000 O   0  0  0  0  0  0  0  0  0  0  0  0
    2.4738   -0.4941    0.0000 C   0  0  0  0  0  0  0  0  0  0  0  0
    1.8877   -1.0746    0.0000 C   0  0  0  0  0  0  0  0  0  0  0  0
    2.0974   -1.8725    0.0000 O   0  0  0  0  0  0  0  0  0  0  0  0
    1.0918   -0.8573    0.0000 O   0  0  0  0  0  0  0  0  0  0  0  0
    2.8703   -1.2175    0.0000 C   0  0  0  0  0  0  0  0  0  0  0  0
    2.4843   -1.3190    0.0000 F   0  0  0  0  0  0  0  0  0  0  0  0
    4.6517   -0.3481    0.0000 C   0  0  0  0  0  0  0  0  0  0  0  0
    4.2322    1.2477    0.0000 O   0  0  0  0  0  0  0  0  0  0  0  0
    5.0281    1.0304    0.0000 C   0  0  0  0  0  0  0  0  0  0  0  0
    5.6142    1.6110    0.0000 C   0  0  0  0  0  0  0  0  0  0  0  0
    6.4101    1.3936    0.0000 C   0  0  0  0  0  0  0  0  0  0  0  0
    6.6198    0.5958    0.0000 C   0  0  0  0  0  0  0  0  0  0  0  0
    6.0337    0.0152    0.0000 C   0  0  0  0  0  0  0  0  0  0  0  0
    5.2378    0.2325    0.0000 O   0  0  0  0  0  0  0  0  0  0  0  0
    6.2434   -0.7827    0.0000 C   0  0  0  0  0  0  0  0  0  0  0  0
    6.9962    1.9742    0.0000 N   0  0  0  0  0  0  0  0  0  0  0  0
    7.7921    1.7569    0.0000 C   0  0  0  0  0  0  0  0  0  0  0  0
    6.7865    2.7721    0.0000 C   0  0  0  0  0  0  0  0  0  0  0  0
    5.4045    2.4089    0.0000 O   0  0  0  0  0  0  0  0  0  0  0  0
    3.5594    1.3060    0.0000 C   0  0  0  0  0  0  0  0  0  0  0  0
    3.2785    1.5896    0.0000 O   0  0  0  0  0  0  0  0  0  0  0  0
    2.8819    2.3130    0.0000 C   0  0  0  0  0  0  0  0  0  0  0  0
    1.6349    2.6975    0.0000 C   0  0  0  0  0  0  0  0  0  0  0  0
    0.2529    2.3343    0.0000 C   0  0  0  0  0  0  0  0  0  0  0  0
   -0.9472    1.0029    0.0000 N   0  0  0  0  0  0  0  0  0  0  0  0
   -1.2465    0.2341    0.0000 C   0  0  0  0  0  0  0  0  0  0  0  0
   -2.0444    0.0244    0.0000 O   0  0  0  0  0  0  0  0  0  0  0  0
   -0.6078   -0.2881    0.0000 O   0  0  0  0  0  0  0  0  0  0  0  0
   -1.3932    1.6969    0.0000 C   0  0  0  0  0  0  0  0  0  0  0  0
   -2.2173    1.6577    0.0000 C   0  0  0  0  0  0  0  0  0  0  0  0
   -2.6633    2.3517    0.0000 C   0  0  0  0  0  0  0  0  0  0  0  0
   -3.4874    2.3124    0.0000 C   0  0  0  0  0  0  0  0  0  0  0  0
   -3.9334    3.0065    0.0000 N   0  0  0  0  0  0  0  0  0  0  0  0
   -4.7571    3.0536    0.0000 C   0  0  0  0  0  0  0  0  0  0  0  0
   -4.9668    3.8515    0.0000 C   0  0  0  0  0  0  0  0  0  0  0  0
   -4.2728    4.2975    0.0000 N   0  0  0  0  0  0  0  0  0  0  0  0
   -3.6341    3.7752    0.0000 N   0  0  0  0  0  0  0  0  0  0  0  0
   -5.7356    4.1508    0.0000 C   0  0  0  0  0  0  0  0  0  0  0  0
   -6.3792    3.6346    0.0000 C   0  0  0  0  0  0  0  0  0  0  0  0
   -7.1480    3.9339    0.0000 C   0  0  0  0  0  0  0  0  0  0  0  0
   -7.2732    4.7494    0.0000 C   0  0  0  0  0  0  0  0  0  0  0  0
   -6.6295    5.2655    0.0000 C   0  0  0  0  0  0  0  0  0  0  0  0
   -5.8608    4.9662    0.0000 C   0  0  0  0  0  0  0  0  0  0  0  0
   -7.7916    3.4178    0.0000 N   0  0  0  0  0  0  0  0  0  0  0  0
   -0.0467   -0.6563    0.0000 C   0  0  0  0  0  0  0  0  0  0  0  0
  1  2  1  0  0  0  0
  2  3  1  0  0  0  0
  3  4  1  0  0  0  0
  4  5  1  0  0  0  0
  5  6  1  0  0  0  0
  6  7  1  0  0  0  0
  7  8  2  0  0  0  0
  7  9  1  0  0  0  0
  9 10  1  0  0  0  0
 10 11  1  0  0  0  0
 11 12  1  0  0  0  0
 12 13  1  0  0  0  0
 13 14  1  0  0  0  0
 14 15  2  0  0  0  0
 14 16  1  0  0  0  0
 16 17  1  0  0  0  0
 17 18  2  0  0  0  0
 17 19  1  0  0  0  0
  3 19  1  0  0  0  0
 16 20  1  0  0  0  0
 16 21  1  0  0  0  0
 13 22  1  0  0  0  0
 12 23  1  0  0  0  0
 23 24  1  0  0  0  0
 24 25  1  0  0  0  0
 25 26  1  0  0  0  0
 26 27  1  0  0  0  0
 27 28  1  0  0  0  0
 28 29  1  0  0  0  0
 24 29  1  0  0  0  0
 28 30  1  0  0  0  0
 26 31  1  0  0  0  0
 31 32  1  0  0  0  0
 31 33  1  0  0  0  0
 25 34  1  0  0  0  0
 11 35  1  0  0  0  0
 11 36  1  0  0  0  0
 36 37  1  0  0  0  0
  9 38  1  0  0  0  0
  6 39  1  0  0  0  0
  5 40  1  0  0  0  0
 40 41  1  0  0  0  0
 41 42  2  0  0  0  0
 41 43  1  0  0  0  0
  4 43  1  0  0  0  0
 40 44  1  0  0  0  0
 44 45  1  0  0  0  0
 45 46  1  0  0  0  0
 46 47  1  0  0  0  0
 47 48  1  0  0  0  0
 48 49  1  0  0  0  0
 49 50  2  0  0  0  0
 50 51  1  0  0  0  0
 51 52  2  0  0  0  0
 48 52  1  0  0  0  0
 50 53  1  0  0  0  0
 53 54  2  0  0  0  0
 54 55  1  0  0  0  0
 55 56  2  0  0  0  0
 56 57  1  0  0  0  0
 57 58  2  0  0  0  0
 53 58  1  0  0  0  0
 55 59  1  0  0  0  0
  4 60  1  0  0  0  0
M  END
>  <Name>
Solithromycin 

>  <CAS>
760981-83-7

>  <Formula>
C43H65FN6O10

>  <MolWt>
845.01 

>  <Bioactivity>
SolithroMycin is an antibiotic compound.

>  <Pathways>
Microbiology & Virology 

>  <Target>
Antibiotic

>  <Receptor>
antibiotic

>  <Reference>
1. Kobayashi Y, et al. Br J Pharmacol. 2013 Jul;169(5):1024-34. 

$$$$
16208-51-8
  Mrv1561503291623562D          

 16 13  0  0  0  0            999 V2000
    5.3625   -2.1434    0.0000 C   0  0  0  0  0  0  0  0  0  0  0  0
    6.1875   -2.1434    0.0000 S   0  0  0  0  0  0  0  0  0  0  0  0
    6.1875   -1.3184    0.0000 O   0  0  0  0  0  0  0  0  0  0  0  0
    6.1875   -2.9684    0.0000 O   0  0  0  0  0  0  0  0  0  0  0  0
    7.0125   -2.1434    0.0000 O   0  5  0  0  0  0  0  0  0  0  0  0
    4.9500   -1.4289    0.0000 C   0  0  0  0  0  0  0  0  0  0  0  0
    4.1250   -1.4289    0.0000 S   0  0  0  0  0  0  0  0  0  0  0  0
    3.7125   -0.7145    0.0000 S   0  0  0  0  0  0  0  0  0  0  0  0
    2.8875   -0.7145    0.0000 C   0  0  0  0  0  0  0  0  0  0  0  0
    2.4750   -0.0000    0.0000 C   0  0  0  0  0  0  0  0  0  0  0  0
    1.6500   -0.0000    0.0000 S   0  0  0  0  0  0  0  0  0  0  0  0
    1.6500    0.8250    0.0000 O   0  0  0  0  0  0  0  0  0  0  0  0
    1.6500   -0.8250    0.0000 O   0  0  0  0  0  0  0  0  0  0  0  0
    0.8250    0.0000    0.0000 O   0  5  0  0  0  0  0  0  0  0  0  0
    7.8375   -2.1434    0.0000 Na  0  3  0  0  0  0  0  0  0  0  0  0
    0.0000    0.0000    0.0000 Na  0  3  0  0  0  0  0  0  0  0  0  0
  1  2  1  0  0  0  0
  2  3  2  0  0  0  0
  2  4  2  0  0  0  0
  2  5  1  0  0  0  0
  1  6  1  0  0  0  0
  6  7  1  0  0  0  0
  7  8  1  0  0  0  0
  8  9  1  0  0  0  0
  9 10  1  0  0  0  0
 10 11  1  0  0  0  0
 11 12  2  0  0  0  0
 11 13  2  0  0  0  0
 11 14  1  0  0  0  0
M  CHG  4   5  -1  14  -1  15   1  16   1
M  END
>  <Name>
Dimesna

>  <CAS>
16208-51-8

>  <Formula>
C4H8Na2O6S4

>  <MolWt>
326.34 

>  <Bioactivity>
Dimesna is an uroprotective agent used to decrease urotoxicity.

>  <Pathways>
Membrane Transporter/Ion Channel

>  <Target>
Others

>  <Receptor>
organic anion transporter

>  <Reference>
1. Parker AR, et al. Mol, Cancer Ther, 2010, 9(9), 2558-2567.

$$$$
T2582
  Mrv1561503291623562D          

 35 37  0  0  0  0            999 V2000
    0.0000   -0.8250    0.0000 C   0  0  0  0  0  0  0  0  0  0  0  0
    0.0000    0.0000    0.0000 S   0  0  0  0  0  0  0  0  0  0  0  0
    0.0000    0.8250    0.0000 O   0  0  0  0  0  0  0  0  0  0  0  0
    0.8250   -0.0000    0.0000 O   0  0  0  0  0  0  0  0  0  0  0  0
   -0.8250    0.0000    0.0000 O   0  0  0  0  0  0  0  0  0  0  0  0
    5.5251   -4.0146    0.0000 C   0  0  0  0  0  0  0  0  0  0  0  0
    4.7001   -4.0146    0.0000 C   0  0  0  0  0  0  0  0  0  0  0  0
    4.4452   -3.2300    0.0000 C   0  0  0  0  0  0  0  0  0  0  0  0
    5.1126   -2.7451    0.0000 C   0  0  0  0  0  0  0  0  0  0  0  0
    5.7801   -3.2300    0.0000 C   0  0  0  0  0  0  0  0  0  0  0  0
    4.7076   -2.0263    0.0000 C   0  0  0  0  0  0  0  0  0  0  0  0
    4.3026   -1.3076    0.0000 N   0  0  0  0  0  0  0  0  0  0  0  0
    5.5176   -2.0263    0.0000 C   0  0  0  0  0  0  0  0  0  0  0  0
    5.0976   -1.3162    0.0000 C   0  0  0  0  0  0  0  0  0  0  0  0
    5.5026   -0.5975    0.0000 C   0  0  0  0  0  0  0  0  0  0  0  0
    6.3276   -0.5888    0.0000 C   0  0  0  0  0  0  0  0  0  0  0  0
    6.7476   -1.2989    0.0000 C   0  0  0  0  0  0  0  0  0  0  0  0
    6.3426   -2.0177    0.0000 C   0  0  0  0  0  0  0  0  0  0  0  0
    6.7326    0.1299    0.0000 N   0  0  0  0  0  0  0  0  0  0  0  0
    6.3126    0.8400    0.0000 C   0  0  0  0  0  0  0  0  0  0  0  0
    5.4877    0.8314    0.0000 O   0  0  0  0  0  0  0  0  0  0  0  0
    6.7176    1.5588    0.0000 C   0  0  0  0  0  0  0  0  0  0  0  0
    6.2977    2.2689    0.0000 C   0  0  0  0  0  0  0  0  0  0  0  0
    6.7027    2.9877    0.0000 N   0  0  0  0  0  0  0  0  0  0  0  0
    7.5276    2.9963    0.0000 C   0  0  0  0  0  0  0  0  0  0  0  0
    7.9476    2.2862    0.0000 C   0  0  0  0  0  0  0  0  0  0  0  0
    7.5426    1.5674    0.0000 C   0  0  0  0  0  0  0  0  0  0  0  0
    5.4727    2.2603    0.0000 N   0  0  0  0  0  0  0  0  0  0  0  0
    5.0677    1.5415    0.0000 C   0  0  0  0  0  0  0  0  0  0  0  0
    4.2428    1.5329    0.0000 C   0  0  0  0  0  0  0  0  0  0  0  0
    3.8378    0.8141    0.0000 C   0  0  0  0  0  0  0  0  0  0  0  0
    3.0128    0.8055    0.0000 C   0  0  0  0  0  0  0  0  0  0  0  0
    2.5929    1.5156    0.0000 N   0  0  0  0  0  0  0  0  0  0  0  0
    2.9979    2.2343    0.0000 C   0  0  0  0  0  0  0  0  0  0  0  0
    3.8228    2.2430    0.0000 C   0  0  0  0  0  0  0  0  0  0  0  0
  1  2  1  0  0  0  0
  2  3  2  0  0  0  0
  2  4  2  0  0  0  0
  2  5  1  0  0  0  0
  6  7  1  0  0  0  0
  7  8  1  0  0  0  0
  8  9  1  0  0  0  0
  9 10  1  0  0  0  0
  6 10  1  0  0  0  0
  9 11  1  0  0  0  0
 11 12  3  0  0  0  0
  9 13  1  0  0  0  0
 13 14  2  0  0  0  0
 14 15  1  0  0  0  0
 15 16  2  0  0  0  0
 16 17  1  0  0  0  0
 17 18  2  0  0  0  0
 13 18  1  0  0  0  0
 16 19  1  0  0  0  0
 19 20  1  0  0  0  0
 20 21  2  0  0  0  0
 20 22  1  0  0  0  0
 22 23  2  0  0  0  0
 23 24  1  0  0  0  0
 24 25  2  0  0  0  0
 25 26  1  0  0  0  0
 26 27  2  0  0  0  0
 22 27  1  0  0  0  0
 23 28  1  0  0  0  0
 28 29  1  0  0  0  0
 29 30  1  0  0  0  0
 30 31  2  0  0  0  0
 31 32  1  0  0  0  0
 32 33  2  0  0  0  0
 33 34  1  0  0  0  0
 34 35  2  0  0  0  0
 30 35  1  0  0  0  0
M  END
>  <Name>
Apatinib

>  <CAS>
811803-05-1

>  <Formula>
C25H27N5O4S

>  <MolWt>
493.58 

>  <Bioactivity>
Apatinib is an orally bioavailable, selective VEGFR2 inhibitor with IC50 of 1 nM.

>  <Pathways>
Tyrosine Kinase/Adaptors

>  <Target>
VEGFR inhibitor

>  <Receptor>
VEGFR2;Ret;c-kit;c-Src;

>  <Reference>
1. Tian S, et al. Cancer Sci, 2011, 102(7), 1374-1380.

$$$$
6190-39-2
  Mrv1561503291623562D          

 48 54  0  0  1  0            999 V2000
    1.7618   -0.5166    0.0000 C   0  0  2  0  0  0  0  0  0  0  0  0
    0.9414   -0.6028    0.0000 O   0  0  0  0  0  0  0  0  0  0  0  0
    0.6058    0.1509    0.0000 C   0  0  1  0  0  0  0  0  0  0  0  0
   -0.1087   -0.2616    0.0000 N   0  0  0  0  0  0  0  0  0  0  0  0
   -0.8231    0.1509    0.0000 C   0  0  0  0  0  0  0  0  0  0  0  0
   -0.8231    0.9759    0.0000 O   0  0  0  0  0  0  0  0  0  0  0  0
   -1.5376   -0.2616    0.0000 C   0  0  2  0  0  0  0  0  0  0  0  0
   -2.2521    0.1509    0.0000 C   0  0  0  0  0  0  0  0  0  0  0  0
   -2.9666   -0.2616    0.0000 C   0  0  1  0  0  0  0  0  0  0  0  0
   -2.9666   -1.0866    0.0000 C   0  0  2  0  0  0  0  0  0  0  0  0
   -2.2521   -1.4991    0.0000 N   0  0  0  0  0  0  0  0  0  0  0  0
   -1.5376   -1.0866    0.0000 C   0  0  0  0  0  0  0  0  0  0  0  0
   -2.2521   -2.3241    0.0000 C   0  0  0  0  0  0  0  0  0  0  0  0
   -3.6810   -1.4991    0.0000 C   0  0  0  0  0  0  0  0  0  0  0  0
   -4.3955   -1.0866    0.0000 C   0  0  0  0  0  0  0  0  0  0  0  0
   -5.1801   -1.3416    0.0000 C   0  0  0  0  0  0  0  0  0  0  0  0
   -5.6650   -0.6741    0.0000 N   0  0  0  0  0  0  0  0  0  0  0  0
   -5.1801   -0.0067    0.0000 C   0  0  0  0  0  0  0  0  0  0  0  0
   -5.3516    0.8003    0.0000 C   0  0  0  0  0  0  0  0  0  0  0  0
   -4.7386    1.3523    0.0000 C   0  0  0  0  0  0  0  0  0  0  0  0
   -3.9539    1.0974    0.0000 C   0  0  0  0  0  0  0  0  0  0  0  0
   -3.6810    0.1509    0.0000 C   0  0  0  0  0  0  0  0  0  0  0  0
   -4.3955   -0.2616    0.0000 C   0  0  0  0  0  0  0  0  0  0  0  0
    1.2189    0.7029    0.0000 C   0  0  0  0  0  0  0  0  0  0  0  0
    1.1327    1.5234    0.0000 O   0  0  0  0  0  0  0  0  0  0  0  0
    1.9334    0.2904    0.0000 N   0  0  0  0  0  0  0  0  0  0  0  0
    2.7180    0.5454    0.0000 C   0  0  2  0  0  0  0  0  0  0  0  0
    3.3311   -0.0067    0.0000 C   0  0  0  0  0  0  0  0  0  0  0  0
    4.1157    0.2483    0.0000 O   0  0  0  0  0  0  0  0  0  0  0  0
    3.1596   -0.8136    0.0000 N   0  0  0  0  0  0  0  0  0  0  0  0
    2.3749   -1.0686    0.0000 C   0  0  1  0  0  0  0  0  0  0  0  0
    2.3749   -1.8936    0.0000 C   0  0  0  0  0  0  0  0  0  0  0  0
    3.1596   -2.1485    0.0000 C   0  0  0  0  0  0  0  0  0  0  0  0
    3.6445   -1.4811    0.0000 C   0  0  0  0  0  0  0  0  0  0  0  0
    2.8895    1.3523    0.0000 C   0  0  0  0  0  0  0  0  0  0  0  0
    3.6741    1.6073    0.0000 C   0  0  0  0  0  0  0  0  0  0  0  0
    3.8457    2.4142    0.0000 C   0  0  0  0  0  0  0  0  0  0  0  0
    4.6303    2.6692    0.0000 C   0  0  0  0  0  0  0  0  0  0  0  0
    5.2434    2.1171    0.0000 C   0  0  0  0  0  0  0  0  0  0  0  0
    5.0719    1.3102    0.0000 C   0  0  0  0  0  0  0  0  0  0  0  0
    4.2872    1.0552    0.0000 C   0  0  0  0  0  0  0  0  0  0  0  0
    0.1209    0.8183    0.0000 C   0  0  0  0  0  0  0  0  0  0  0  0
    1.5069   -1.3012    0.0000 O   0  0  0  0  0  0  0  0  0  0  0  0
    7.9541   -0.8250    0.0000 C   0  0  0  0  0  0  0  0  0  0  0  0
    7.9541    0.0000    0.0000 S   0  0  0  0  0  0  0  0  0  0  0  0
    7.9541    0.8250    0.0000 O   0  0  0  0  0  0  0  0  0  0  0  0
    8.7791   -0.0000    0.0000 O   0  0  0  0  0  0  0  0  0  0  0  0
    7.1291    0.0000    0.0000 O   0  0  0  0  0  0  0  0  0  0  0  0
  1  2  1  0  0  0  0
  2  3  1  0  0  0  0
  3  4  1  1  0  0  0
  4  5  1  0  0  0  0
  5  6  2  0  0  0  0
  7  5  1  1  0  0  0
  7  8  1  0  0  0  0
  8  9  1  0  0  0  0
  9 10  1  0  0  0  0
 10 11  1  6  0  0  0
 11 12  1  0  0  0  0
  7 12  1  0  0  0  0
 11 13  1  0  0  0  0
 10 14  1  0  0  0  0
 14 15  1  0  0  0  0
 15 16  2  0  0  0  0
 16 17  1  0  0  0  0
 17 18  1  0  0  0  0
 18 19  2  0  0  0  0
 19 20  1  0  0  0  0
 20 21  2  0  0  0  0
 21 22  1  0  0  0  0
  9 22  1  1  0  0  0
 22 23  2  0  0  0  0
 15 23  1  0  0  0  0
 18 23  1  0  0  0  0
  3 24  1  0  0  0  0
 24 25  2  0  0  0  0
 24 26  1  0  0  0  0
  1 26  1  0  0  0  0
 26 27  1  0  0  0  0
 27 28  1  0  0  0  0
 28 29  2  0  0  0  0
 28 30  1  0  0  0  0
 31 30  1  1  0  0  0
  1 31  1  0  0  0  0
 31 32  1  0  0  0  0
 32 33  1  0  0  0  0
 33 34  1  0  0  0  0
 30 34  1  0  0  0  0
 27 35  1  1  0  0  0
 35 36  1  0  0  0  0
 36 37  2  0  0  0  0
 37 38  1  0  0  0  0
 38 39  2  0  0  0  0
 39 40  1  0  0  0  0
 40 41  2  0  0  0  0
 36 41  1  0  0  0  0
  3 42  1  6  0  0  0
  1 43  1  1  0  0  0
 44 45  1  0  0  0  0
 45 46  2  0  0  0  0
 45 47  2  0  0  0  0
 45 48  1  0  0  0  0
M  END
>  <Name>
Dihydroergotamine Mesylate

>  <CAS>
6190-39-2

>  <Formula>
C34H41N5O8S

>  <MolWt>
679.80 

>  <Bioactivity>
Dihydroergotamine mesylate is an ergot alkaloid used to treat migraines.

>  <Pathways>
Neuroscience

>  <Target>
5-HT Receptor antagonist

>  <Receptor>
5-HT Receptor

>  <Reference>
1. Colman I, et al. Ann Emerg Med, 2005. 45(4): p. 393-401.

$$$$
55-06-1
  Mrv1561503291623562D          

 24 24  0  0  1  0            999 V2000
    4.2868   -2.4750    0.0000 C   0  0  0  0  0  0  0  0  0  0  0  0
    4.2868   -1.6500    0.0000 N   0  0  0  0  0  0  0  0  0  0  0  0
    3.5724   -2.8875    0.0000 C   0  0  0  0  0  0  0  0  0  0  0  0
    2.8579   -2.4750    0.0000 C   0  0  0  0  0  0  0  0  0  0  0  0
    2.1434   -2.8875    0.0000 C   0  0  0  0  0  0  0  0  0  0  0  0
    1.4289   -2.4750    0.0000 C   0  0  0  0  0  0  0  0  0  0  0  0
    1.4289   -1.6500    0.0000 C   0  0  0  0  0  0  0  0  0  0  0  0
    0.7145   -1.2375    0.0000 O   0  0  0  0  0  0  0  0  0  0  0  0
    0.7145   -0.4125    0.0000 C   0  0  0  0  0  0  0  0  0  0  0  0
    0.0000    0.0000    0.0000 C   0  0  0  0  0  0  0  0  0  0  0  0
    0.0000    0.8250    0.0000 C   0  0  0  0  0  0  0  0  0  0  0  0
    0.7145    1.2375    0.0000 C   0  0  0  0  0  0  0  0  0  0  0  0
    0.7145    2.0625    0.0000 O   0  0  0  0  0  0  0  0  0  0  0  0
    1.4289    0.8250    0.0000 C   0  0  0  0  0  0  0  0  0  0  0  0
    1.4289    0.0000    0.0000 C   0  0  0  0  0  0  0  0  0  0  0  0
   -0.7145    1.2375    0.0000 I   0  0  0  0  0  0  0  0  0  0  0  0
    2.1434   -1.2375    0.0000 C   0  0  0  0  0  0  0  0  0  0  0  0
    2.8579   -1.6500    0.0000 C   0  0  0  0  0  0  0  0  0  0  0  0
    2.1434   -0.4125    0.0000 I   0  0  0  0  0  0  0  0  0  0  0  0
    0.7145   -2.8875    0.0000 I   0  0  0  0  0  0  0  0  0  0  0  0
    5.0013   -2.8875    0.0000 C   0  0  0  0  0  0  0  0  0  0  0  0
    5.7158   -2.4750    0.0000 O   0  5  0  0  0  0  0  0  0  0  0  0
    5.0013   -3.7125    0.0000 O   0  0  0  0  0  0  0  0  0  0  0  0
    6.4302   -2.0625    0.0000 Na  0  3  0  0  0  0  0  0  0  0  0  0
  1  2  1  0  0  0  0
  1  3  1  0  0  0  0
  3  4  1  0  0  0  0
  4  5  2  0  0  0  0
  5  6  1  0  0  0  0
  6  7  2  0  0  0  0
  7  8  1  0  0  0  0
  8  9  1  0  0  0  0
  9 10  2  0  0  0  0
 10 11  1  0  0  0  0
 11 12  2  0  0  0  0
 12 13  1  0  0  0  0
 12 14  1  0  0  0  0
 14 15  2  0  0  0  0
  9 15  1  0  0  0  0
 11 16  1  0  0  0  0
  7 17  1  0  0  0  0
 17 18  2  0  0  0  0
  4 18  1  0  0  0  0
 17 19  1  0  0  0  0
  6 20  1  0  0  0  0
  1 21  1  0  0  0  0
 21 22  1  0  0  0  0
 21 23  2  0  0  0  0
M  CHG  2  22  -1  24   1
M  END
>  <Name>
Liothyronine sodium

>  <CAS>
55-06-1

>  <Formula>
C15H11I3NNaO4

>  <MolWt>
672.96 

>  <Bioactivity>
Liothyronine Sodium is the most potent form of thyroid hormone acting on the body to increase the basal metabolic rate, affect protein synthesis.

>  <Pathways>
Endocrinology/ Hormones

>  <Target>
Thyroid hormone receptor agonist

>  <Receptor>
Thyroid hormone receptor

>  <Reference>
1. Timmer DC, et al. J Endocrinol, 2003, 179(2), 217-225.

$$$$
T0129
  Mrv1561503291623562D          

 26 30  0  0  0  0            999 V2000
   -0.0361   -1.3565    0.0000 C   0  0  0  0  0  0  0  0  0  0  0  0
   -0.8552   -1.4551    0.0000 C   0  0  0  0  0  0  0  0  0  0  0  0
   -1.3501   -0.7951    0.0000 C   0  0  0  0  0  0  0  0  0  0  0  0
   -1.0260   -0.0364    0.0000 C   0  0  0  0  0  0  0  0  0  0  0  0
   -0.2069    0.0622    0.0000 C   0  0  0  0  0  0  0  0  0  0  0  0
    0.2880   -0.5978    0.0000 C   0  0  0  0  0  0  0  0  0  0  0  0
    1.1071   -0.4992    0.0000 C   0  0  0  0  0  0  0  0  0  0  0  0
    1.4312    0.2595    0.0000 C   0  0  0  0  0  0  0  0  0  0  0  0
    2.2503    0.3581    0.0000 C   0  0  0  0  0  0  0  0  0  0  0  0
    2.7453   -0.3019    0.0000 C   0  0  0  0  0  0  0  0  0  0  0  0
    3.5260   -0.0352    0.0000 O   0  0  0  0  0  0  0  0  0  0  0  0
    3.5135    0.7897    0.0000 C   0  0  0  0  0  0  0  0  0  0  0  0
    2.7251    1.0328    0.0000 O   0  0  0  0  0  0  0  0  0  0  0  0
    2.4212   -1.0606    0.0000 C   0  0  0  0  0  0  0  0  0  0  0  0
    1.6021   -1.1592    0.0000 C   0  0  0  0  0  0  0  0  0  0  0  0
    0.9363    0.9195    0.0000 C   0  0  0  0  0  0  0  0  0  0  0  0
    0.1172    0.8209    0.0000 N   0  3  0  0  0  0  0  0  0  0  0  0
   -0.3778    1.4809    0.0000 C   0  0  0  0  0  0  0  0  0  0  0  0
   -1.5210    0.6236    0.0000 C   0  0  0  0  0  0  0  0  0  0  0  0
   -2.3400    0.5250    0.0000 C   0  0  0  0  0  0  0  0  0  0  0  0
   -2.9614    1.0677    0.0000 O   0  0  0  0  0  0  0  0  0  0  0  0
   -3.6696    0.6444    0.0000 C   0  0  0  0  0  0  0  0  0  0  0  0
   -3.4859   -0.1599    0.0000 O   0  0  0  0  0  0  0  0  0  0  0  0
   -2.6642   -0.2337    0.0000 C   0  0  0  0  0  0  0  0  0  0  0  0
   -2.1692   -0.8937    0.0000 C   0  0  0  0  0  0  0  0  0  0  0  0
    5.8831    0.0000    0.0000 Cl  0  5  0  0  0  0  0  0  0  0  0  0
  1  2  2  0  0  0  0
  2  3  1  0  0  0  0
  3  4  2  0  0  0  0
  4  5  1  0  0  0  0
  5  6  2  0  0  0  0
  1  6  1  0  0  0  0
  6  7  1  0  0  0  0
  7  8  2  0  0  0  0
  8  9  1  0  0  0  0
  9 10  2  0  0  0  0
 10 11  1  0  0  0  0
 11 12  1  0  0  0  0
 12 13  1  0  0  0  0
  9 13  1  0  0  0  0
 10 14  1  0  0  0  0
 14 15  2  0  0  0  0
  7 15  1  0  0  0  0
  8 16  1  0  0  0  0
 16 17  2  0  0  0  0
  5 17  1  0  0  0  0
 17 18  1  0  0  0  0
  4 19  1  0  0  0  0
 19 20  2  0  0  0  0
 20 21  1  0  0  0  0
 21 22  1  0  0  0  0
 22 23  1  0  0  0  0
 23 24  1  0  0  0  0
 20 24  1  0  0  0  0
 24 25  2  0  0  0  0
  3 25  1  0  0  0  0
M  CHG  2  17   1  26  -1
M  END
>  <Name>
Sanguinarine chloride

>  <CAS>
5578-73-4

>  <Formula>
C20H14ClNO4

>  <MolWt>
367.78 

>  <Bioactivity>
Sanguinarine-containing mouthwashes are marketed as anti-plaque and anti-malodor.

>  <Pathways>
Angiogenesis

>  <Target>
Egr-1 inhibitor;VEGF inhibitor

>  <Receptor>
Egr-1;VEGF

>  <Reference>
1. Han MH, et al.
Toxicol Lett. 2013 Jul 4;220(2):157-66. 

$$$$
121-75-5
  Mrv1561503291623562D          

 19 18  0  0  0  0            999 V2000
    0.5230    1.1270    0.0000 C   0  0  0  0  0  0  0  0  0  0  0  0
   -0.1914    0.7145    0.0000 C   0  0  0  0  0  0  0  0  0  0  0  0
   -0.9059    1.1270    0.0000 S   0  0  0  0  0  0  0  0  0  0  0  0
   -1.6204    0.7145    0.0000 P   0  0  0  0  0  0  0  0  0  0  0  0
   -2.0329    1.4289    0.0000 S   0  0  0  0  0  0  0  0  0  0  0  0
   -2.3349    0.3020    0.0000 O   0  0  0  0  0  0  0  0  0  0  0  0
   -3.0493    0.7145    0.0000 C   0  0  0  0  0  0  0  0  0  0  0  0
   -1.2079   -0.0000    0.0000 O   0  0  0  0  0  0  0  0  0  0  0  0
   -1.6204   -0.7145    0.0000 C   0  0  0  0  0  0  0  0  0  0  0  0
   -0.1914   -0.1105    0.0000 C   0  0  0  0  0  0  0  0  0  0  0  0
   -0.9059   -0.5230    0.0000 O   0  0  0  0  0  0  0  0  0  0  0  0
   -0.9059   -1.3480    0.0000 C   0  0  0  0  0  0  0  0  0  0  0  0
   -0.1914   -1.7605    0.0000 C   0  0  0  0  0  0  0  0  0  0  0  0
    0.5230   -0.5230    0.0000 O   0  0  0  0  0  0  0  0  0  0  0  0
    1.2375    0.7145    0.0000 C   0  0  0  0  0  0  0  0  0  0  0  0
    1.9520    1.1270    0.0000 O   0  0  0  0  0  0  0  0  0  0  0  0
    2.6664    0.7145    0.0000 C   0  0  0  0  0  0  0  0  0  0  0  0
    3.3809    1.1270    0.0000 C   0  0  0  0  0  0  0  0  0  0  0  0
    1.2375   -0.1105    0.0000 O   0  0  0  0  0  0  0  0  0  0  0  0
  1  2  1  0  0  0  0
  2  3  1  0  0  0  0
  3  4  1  0  0  0  0
  4  5  2  0  0  0  0
  4  6  1  0  0  0  0
  6  7  1  0  0  0  0
  4  8  1  0  0  0  0
  8  9  1  0  0  0  0
  2 10  1  0  0  0  0
 10 11  1  0  0  0  0
 11 12  1  0  0  0  0
 12 13  1  0  0  0  0
 10 14  2  0  0  0  0
  1 15  1  0  0  0  0
 15 16  1  0  0  0  0
 16 17  1  0  0  0  0
 17 18  1  0  0  0  0
 15 19  2  0  0  0  0
M  END
>  <Name>
Malathion

>  <CAS>
121-75-5

>  <Formula>
C10H19O6PS2

>  <MolWt>
330.36 

>  <Bioactivity>
A wide spectrum aliphatic organophosphate insecticide widely used for both domestic and commercial agricultural purposes.


>  <Pathways>
Neuroscience

>  <Target>
ChE inhibitor

>  <Receptor>
ChE

>  <Reference>
1. Ramos ZR, et al. Neurotox Res. 2006 Jun;9(4):285-90. 

$$$$
T1044
  Mrv1561503291623562D          

 11 11  0  0  0  0            999 V2000
    0.7145    2.0625    0.0000 C   0  0  0  0  0  0  0  0  0  0  0  0
    0.7145    1.2375    0.0000 C   0  0  0  0  0  0  0  0  0  0  0  0
    1.4289    0.8250    0.0000 C   0  0  0  0  0  0  0  0  0  0  0  0
    2.1434    1.2375    0.0000 Cl  0  0  0  0  0  0  0  0  0  0  0  0
    1.4289    0.0000    0.0000 C   0  0  0  0  0  0  0  0  0  0  0  0
    2.1434   -0.4125    0.0000 O   0  0  0  0  0  0  0  0  0  0  0  0
    0.7145   -0.4125    0.0000 C   0  0  0  0  0  0  0  0  0  0  0  0
    0.0000   -0.0000    0.0000 C   0  0  0  0  0  0  0  0  0  0  0  0
    0.0000    0.8250    0.0000 N   0  0  0  0  0  0  0  0  0  0  0  0
   -0.7145   -0.4125    0.0000 C   0  0  0  0  0  0  0  0  0  0  0  0
    0.7145   -1.2375    0.0000 Cl  0  0  0  0  0  0  0  0  0  0  0  0
  1  2  1  0  0  0  0
  2  3  2  0  0  0  0
  3  4  1  0  0  0  0
  3  5  1  0  0  0  0
  5  6  2  0  0  0  0
  5  7  1  0  0  0  0
  7  8  2  0  0  0  0
  8  9  1  0  0  0  0
  2  9  1  0  0  0  0
  8 10  1  0  0  0  0
  7 11  1  0  0  0  0
M  END
>  <Name>
Clopidol

>  <CAS>
2971-90-6

>  <Formula>
C7H7Cl2NO

>  <MolWt>
192.04 

>  <Bioactivity>
Clopidol is an antiprotozoal agent.

>  <Pathways>
Microbiology & Virology

>  <Target>
Antiprotozoal

>  <Receptor>
Others

>  <Reference>
1. Fang B, et al. Anal Sci, 2009, 25(10), 1203-1206.

$$$$
T1120
  Mrv1561503291623562D          

 13 13  0  0  0  0            999 V2000
   -0.8612    3.5893    0.0000 C   0  0  0  0  0  0  0  0  0  0  0  0
   -0.1467    3.1768    0.0000 N   0  0  0  0  0  0  0  0  0  0  0  0
   -0.1467    2.3518    0.0000 N   0  0  0  0  0  0  0  0  0  0  0  0
    0.5678    1.9393    0.0000 N   0  0  0  0  0  0  0  0  0  0  0  0
    0.5678    1.1143    0.0000 C   0  0  0  0  0  0  0  0  0  0  0  0
    1.2352    0.6294    0.0000 N   0  0  0  0  0  0  0  0  0  0  0  0
    0.9803   -0.1553    0.0000 C   0  0  0  0  0  0  0  0  0  0  0  0
    0.1553   -0.1553    0.0000 N   0  0  0  0  0  0  0  0  0  0  0  0
   -0.0997    0.6294    0.0000 C   0  0  0  0  0  0  0  0  0  0  0  0
   -0.8843    0.8843    0.0000 C   0  0  0  0  0  0  0  0  0  0  0  0
   -1.4974    0.3323    0.0000 O   0  0  0  0  0  0  0  0  0  0  0  0
   -1.0558    1.6913    0.0000 N   0  0  0  0  0  0  0  0  0  0  0  0
    0.5678    3.5893    0.0000 C   0  0  0  0  0  0  0  0  0  0  0  0
  1  2  1  0  0  0  0
  2  3  1  0  0  0  0
  3  4  1  0  0  0  0
  4  5  2  0  0  0  0
  5  6  1  0  0  0  0
  6  7  2  0  0  0  0
  7  8  1  0  0  0  0
  8  9  2  0  0  0  0
  5  9  1  0  0  0  0
  9 10  1  0  0  0  0
 10 11  2  0  0  0  0
 10 12  1  0  0  0  0
  2 13  1  0  0  0  0
M  END
>  <Name>
Dacarbazine

>  <CAS>
4342-03-4

>  <Formula>
C6H10N6O

>  <MolWt>
182.18 

>  <Bioactivity>
Dacarbazine(DTIC-Dome) is an antineoplastic chemotherapy drug used in the treatment of various cancers, among them malignant melanoma, Hodgkin lymphoma, sarcoma, and islet cell carcinoma of the pancreas.

>  <Pathways>
DNA Damage/DNA Repair

>  <Target>
DNA Synthesis inhibitor

>  <Receptor>
DNA polymerase beta

>  <Reference>
1. Lonn U, Lohn S. Cancer Res. 1987 Jan 1;47(1):26-30. 

$$$$
27848-84-6
  Mrv1561503291623562D          

 31 35  0  0  1  0            999 V2000
    2.5645    0.8250    0.0000 C   0  0  1  0  0  0  0  0  0  0  0  0
    2.5645    1.6500    0.0000 O   0  0  0  0  0  0  0  0  0  0  0  0
    3.2789    2.0625    0.0000 C   0  0  0  0  0  0  0  0  0  0  0  0
    2.5645   -0.0000    0.0000 C   0  0  2  0  0  0  0  0  0  0  0  0
    3.2789   -0.4125    0.0000 N   0  3  0  0  0  0  0  0  0  0  0  0
    3.9934    0.0000    0.0000 C   0  0  0  0  0  0  0  0  0  0  0  0
    3.9934    0.8250    0.0000 C   0  0  1  0  0  0  0  0  0  0  0  0
    3.2789    1.2375    0.0000 C   0  0  0  0  0  0  0  0  0  0  0  0
    4.7079    1.2375    0.0000 C   0  0  0  0  0  0  0  0  0  0  0  0
    5.4223    0.8250    0.0000 O   0  0  0  0  0  0  0  0  0  0  0  0
    6.1368    1.2375    0.0000 C   0  0  0  0  0  0  0  0  0  0  0  0
    6.1368    2.0625    0.0000 O   0  0  0  0  0  0  0  0  0  0  0  0
    6.8513    0.8250    0.0000 C   0  0  0  0  0  0  0  0  0  0  0  0
    7.5658    1.2375    0.0000 C   0  0  0  0  0  0  0  0  0  0  0  0
    8.2802    0.8250    0.0000 N   0  0  0  0  0  0  0  0  0  0  0  0
    8.2802    0.0000    0.0000 C   0  0  0  0  0  0  0  0  0  0  0  0
    7.5658   -0.4125    0.0000 C   0  0  0  0  0  0  0  0  0  0  0  0
    6.8513    0.0000    0.0000 C   0  0  0  0  0  0  0  0  0  0  0  0
    7.5658   -1.2375    0.0000 Br  0  0  0  0  0  0  0  0  0  0  0  0
    3.2789   -1.2375    0.0000 C   0  0  0  0  0  0  0  0  0  0  0  0
    1.8500   -0.4125    0.0000 C   0  0  0  0  0  0  0  0  0  0  0  0
    1.1355   -0.0000    0.0000 C   0  0  0  0  0  0  0  0  0  0  0  0
    0.3509   -0.2549    0.0000 C   0  0  0  0  0  0  0  0  0  0  0  0
   -0.1340    0.4125    0.0000 N   0  0  0  0  0  0  0  0  0  0  0  0
    0.3509    1.0799    0.0000 C   0  0  0  0  0  0  0  0  0  0  0  0
    0.1794    1.8869    0.0000 C   0  0  0  0  0  0  0  0  0  0  0  0
    0.7925    2.4389    0.0000 C   0  0  0  0  0  0  0  0  0  0  0  0
    1.5771    2.1840    0.0000 C   0  0  0  0  0  0  0  0  0  0  0  0
    1.8500    1.2375    0.0000 C   0  0  0  0  0  0  0  0  0  0  0  0
    1.1355    0.8250    0.0000 C   0  0  0  0  0  0  0  0  0  0  0  0
   -0.9590    0.4125    0.0000 C   0  0  0  0  0  0  0  0  0  0  0  0
  1  2  1  6  0  0  0
  2  3  1  0  0  0  0
  1  4  1  0  0  0  0
  4  5  1  0  0  0  0
  5  6  1  0  0  0  0
  6  7  1  0  0  0  0
  7  8  1  0  0  0  0
  1  8  1  0  0  0  0
  7  9  1  1  0  0  0
  9 10  1  0  0  0  0
 10 11  1  0  0  0  0
 11 12  2  0  0  0  0
 11 13  1  0  0  0  0
 13 14  2  0  0  0  0
 14 15  1  0  0  0  0
 15 16  2  0  0  0  0
 16 17  1  0  0  0  0
 17 18  2  0  0  0  0
 13 18  1  0  0  0  0
 17 19  1  0  0  0  0
  5 20  1  0  0  0  0
  4 21  1  6  0  0  0
 21 22  1  0  0  0  0
 22 23  2  0  0  0  0
 23 24  1  0  0  0  0
 24 25  1  0  0  0  0
 25 26  2  0  0  0  0
 26 27  1  0  0  0  0
 27 28  2  0  0  0  0
 28 29  1  0  0  0  0
  1 29  1  0  0  0  0
 29 30  2  0  0  0  0
 22 30  1  0  0  0  0
 25 30  1  0  0  0  0
 24 31  1  0  0  0  0
M  CHG  1   5   1
M  END
>  <Name>
Nicergoline

>  <CAS>
27848-84-6

>  <Formula>
C24H26BrN3O3

>  <MolWt>
484.39 

>  <Bioactivity>
An ergot derivative that has been used as a cerebral vasodilator and in peripheral vascular disease. It has been suggested to ameliorate cognitive deficits in cerebrovascular disease.


>  <Pathways>
GPCR/G Protein

>  <Target>
Adrenergic Receptor

>  <Receptor>
Adrenergic Receptor

>  <Reference>
1. Alvarez-Guerra M, et al. Fundam Clin Pharmacol. 1999;13(1):50-8.

$$$$
T1505
  Mrv1561503291623562D          

 21 21  0  0  1  0            999 V2000
   -0.9788   -0.8623    0.0000 C   0  0  1  0  0  0  0  0  0  0  0  0
   -0.9788   -0.0373    0.0000 N   0  0  0  0  0  0  0  0  0  0  0  0
   -1.8038   -0.0373    0.0000 C   0  0  0  0  0  0  0  0  0  0  0  0
   -2.3871    0.5461    0.0000 O   0  0  0  0  0  0  0  0  0  0  0  0
   -1.8038   -0.8623    0.0000 C   0  0  2  0  0  0  0  0  0  0  0  0
   -2.3871   -1.4457    0.0000 C   0  0  1  0  0  0  0  0  0  0  0  0
   -3.1840   -1.2321    0.0000 O   0  0  0  0  0  0  0  0  0  0  0  0
   -2.1736   -2.2425    0.0000 C   0  0  0  0  0  0  0  0  0  0  0  0
   -0.1941    0.2176    0.0000 C   0  0  0  0  0  0  0  0  0  0  0  0
    0.2908   -0.4498    0.0000 C   0  0  0  0  0  0  0  0  0  0  0  0
    1.1158   -0.4498    0.0000 S   0  0  0  0  0  0  0  0  0  0  0  0
    1.5283    0.2647    0.0000 C   0  0  0  0  0  0  0  0  0  0  0  0
    2.3533    0.2647    0.0000 C   0  0  0  0  0  0  0  0  0  0  0  0
    2.7658    0.9791    0.0000 N   0  0  0  0  0  0  0  0  0  0  0  0
    3.5908    0.9791    0.0000 C   0  0  0  0  0  0  0  0  0  0  0  0
    4.0033    1.6936    0.0000 N   0  0  0  0  0  0  0  0  0  0  0  0
   -0.1941   -1.1172    0.0000 C   0  0  0  0  0  0  0  0  0  0  0  0
    0.0608    1.0023    0.0000 C   0  0  0  0  0  0  0  0  0  0  0  0
    0.8678    1.1738    0.0000 O   0  0  0  0  0  0  0  0  0  0  0  0
   -0.4912    1.6154    0.0000 O   0  0  0  0  0  0  0  0  0  0  0  0
    6.3604    0.0000    0.0000 O   0  0  0  0  0  0  0  0  0  0  0  0
  1  2  1  6  0  0  0
  2  3  1  0  0  0  0
  3  4  2  0  0  0  0
  3  5  1  0  0  0  0
  1  5  1  0  0  0  0
  5  6  1  1  0  0  0
  6  7  1  6  0  0  0
  6  8  1  0  0  0  0
  2  9  1  0  0  0  0
  9 10  2  0  0  0  0
 10 11  1  0  0  0  0
 11 12  1  0  0  0  0
 12 13  1  0  0  0  0
 13 14  1  0  0  0  0
 14 15  2  0  0  0  0
 15 16  1  4  0  0  0
 10 17  1  0  0  0  0
  1 17  1  0  0  0  0
  9 18  1  0  0  0  0
 18 19  1  0  0  0  0
 18 20  2  0  0  0  0
M  END
>  <Name>
Imipenem

>  <CAS>
74431-23-5

>  <Formula>
C12H19N3O5S

>  <MolWt>
317.36 

>  <Bioactivity>
Semisynthetic thienamycin that has a wide spectrum of antibacterial activity against gram-negative and gram-positive aerobic and anaerobic bacteria, including many multiresistant strains. It is stable to beta-lactamases. Clinical studies have demonstrated high efficacy in the treatment of infections of various body systems. Its effectiveness is enhanced when it is administered in combination with CILASTATIN, a renal dipeptidase inhibitor.


>  <Pathways>
Microbiology & Virology

>  <Target>
Antibiotic

>  <Receptor>
?-Lactamase;PBPs

>  <Reference>
1. Pichardo C, et al. Antimicrob Agents Chemother. 2005 Aug;49(8):3311-6.

$$$$
T1561
  Mrv1561503291623562D          

 32 35  0  0  1  0            999 V2000
    4.7875    0.9666    0.0000 C   0  0  1  0  0  0  0  0  0  0  0  0
    3.9629    0.9934    0.0000 C   0  0  2  0  0  0  0  0  0  0  0  0
    3.6826    0.2174    0.0000 C   0  0  2  0  0  0  0  0  0  0  0  0
    2.8705    0.0722    0.0000 C   0  0  1  0  0  0  0  0  0  0  0  0
    2.3387    0.7029    0.0000 C   0  0  2  0  0  0  0  0  0  0  0  0
    1.5266    0.5577    0.0000 C   0  0  2  0  0  0  0  0  0  0  0  0
    1.2463   -0.2182    0.0000 C   0  0  0  0  0  0  0  0  0  0  0  0
    0.4342   -0.3634    0.0000 C   0  0  0  0  0  0  0  0  0  0  0  0
   -0.0976    0.2673    0.0000 C   0  0  0  0  0  0  0  0  0  0  0  0
   -0.9098    0.1221    0.0000 O   0  0  0  0  0  0  0  0  0  0  0  0
    0.1827    1.0432    0.0000 C   0  0  0  0  0  0  0  0  0  0  0  0
    0.9948    1.1884    0.0000 C   0  0  0  0  0  0  0  0  0  0  0  0
    1.7781   -0.8489    0.0000 C   0  0  0  0  0  0  0  0  0  0  0  0
    2.5902   -0.7037    0.0000 C   0  0  0  0  0  0  0  0  0  0  0  0
    1.8069    1.3336    0.0000 C   0  0  0  0  0  0  0  0  0  0  0  0
    2.2792    1.5258    0.0000 F   0  0  0  0  0  0  0  0  0  0  0  0
    2.6190    1.4789    0.0000 C   0  0  2  0  0  0  0  0  0  0  0  0
    3.4311    1.6241    0.0000 C   0  0  0  0  0  0  0  0  0  0  0  0
    2.0872    2.1096    0.0000 O   0  0  0  0  0  0  0  0  0  0  0  0
    4.3340   -0.2889    0.0000 C   0  0  0  0  0  0  0  0  0  0  0  0
    5.0168    0.1741    0.0000 C   0  0  2  0  0  0  0  0  0  0  0  0
    5.7927   -0.1062    0.0000 C   0  0  0  0  0  0  0  0  0  0  0  0
    4.3228    1.7357    0.0000 C   0  0  0  0  0  0  0  0  0  0  0  0
    5.5484    1.2854    0.0000 O   0  0  0  0  0  0  0  0  0  0  0  0
    6.2050    0.7859    0.0000 C   0  0  0  0  0  0  0  0  0  0  0  0
    6.9659    1.1048    0.0000 C   0  0  0  0  0  0  0  0  0  0  0  0
    7.6225    0.6053    0.0000 C   0  0  0  0  0  0  0  0  0  0  0  0
    6.1007   -0.0325    0.0000 O   0  0  0  0  0  0  0  0  0  0  0  0
    4.9089    1.7826    0.0000 C   0  0  0  0  0  0  0  0  0  0  0  0
    5.6763    2.0854    0.0000 C   0  0  0  0  0  0  0  0  0  0  0  0
    5.7977    2.9015    0.0000 Cl  0  0  0  0  0  0  0  0  0  0  0  0
    4.2629    2.2957    0.0000 O   0  0  0  0  0  0  0  0  0  0  0  0
  1  2  1  0  0  0  0
  2  3  1  0  0  0  0
  3  4  1  0  0  0  0
  4  5  1  0  0  0  0
  5  6  1  0  0  0  0
  6  7  1  0  0  0  0
  7  8  2  0  0  0  0
  8  9  1  0  0  0  0
  9 10  2  0  0  0  0
  9 11  1  0  0  0  0
 11 12  2  0  0  0  0
  6 12  1  0  0  0  0
  7 13  1  0  0  0  0
 13 14  1  0  0  0  0
  4 14  1  6  0  0  0
  6 15  1  1  0  0  0
  5 16  1  6  0  0  0
  5 17  1  0  0  0  0
 17 18  1  0  0  0  0
  2 18  1  0  0  0  0
 17 19  1  1  0  0  0
  3 20  1  1  0  0  0
 20 21  1  0  0  0  0
  1 21  1  0  0  0  0
 21 22  1  1  0  0  0
  2 23  1  1  0  0  0
  1 24  1  6  0  0  0
 24 25  1  0  0  0  0
 25 26  1  0  0  0  0
 26 27  1  0  0  0  0
 25 28  2  0  0  0  0
  1 29  1  1  0  0  0
 29 30  1  0  0  0  0
 30 31  1  0  0  0  0
 29 32  2  0  0  0  0
M  END
>  <Name>
Clobetasol propionate

>  <CAS>
25122-46-7

>  <Formula>
C25H32ClFO5

>  <MolWt>
466.97 

>  <Bioactivity>
A derivative of PREDNISOLONE with high glucocorticoid activity and low mineralocorticoid activity. Absorbed through the skin faster than FLUOCINONIDE, it is used topically in treatment of PSORIASIS but may cause marked adrenocortical suppression.


>  <Pathways>
Endocrinology/ Hormones

>  <Target>
Glucocorticoid Receptor agonist

>  <Receptor>
Glucocorticoid receptor

>  <Reference>
1. Fitzgerald P, et al. Psychol Med. 2006 Jan;36(1):37-43. 

$$$$
299-84-3
  Mrv1561503291623562D          

 16 16  0  0  0  0            999 V2000
    1.4289    0.8250    0.0000 C   0  0  0  0  0  0  0  0  0  0  0  0
    1.4289    0.0000    0.0000 C   0  0  0  0  0  0  0  0  0  0  0  0
    2.1434   -0.4125    0.0000 Cl  0  0  0  0  0  0  0  0  0  0  0  0
    0.7145   -0.4125    0.0000 C   0  0  0  0  0  0  0  0  0  0  0  0
   -0.0000    0.0000    0.0000 C   0  0  0  0  0  0  0  0  0  0  0  0
   -0.0000    0.8250    0.0000 C   0  0  0  0  0  0  0  0  0  0  0  0
    0.7145    1.2375    0.0000 C   0  0  0  0  0  0  0  0  0  0  0  0
    0.7145    2.0625    0.0000 O   0  0  0  0  0  0  0  0  0  0  0  0
    0.0000    2.4750    0.0000 P   0  0  0  0  0  0  0  0  0  0  0  0
    0.4125    3.1895    0.0000 O   0  0  0  0  0  0  0  0  0  0  0  0
    1.2375    3.1895    0.0000 C   0  0  0  0  0  0  0  0  0  0  0  0
   -0.7145    2.8875    0.0000 O   0  0  0  0  0  0  0  0  0  0  0  0
   -1.4289    2.4750    0.0000 C   0  0  0  0  0  0  0  0  0  0  0  0
   -0.4125    1.7605    0.0000 S   0  0  0  0  0  0  0  0  0  0  0  0
   -0.7145    1.2375    0.0000 Cl  0  0  0  0  0  0  0  0  0  0  0  0
    0.7145   -1.2375    0.0000 Cl  0  0  0  0  0  0  0  0  0  0  0  0
  1  2  2  0  0  0  0
  2  3  1  0  0  0  0
  2  4  1  0  0  0  0
  4  5  2  0  0  0  0
  5  6  1  0  0  0  0
  6  7  2  0  0  0  0
  1  7  1  0  0  0  0
  7  8  1  0  0  0  0
  8  9  1  0  0  0  0
  9 10  1  0  0  0  0
 10 11  1  0  0  0  0
  9 12  1  0  0  0  0
 12 13  1  0  0  0  0
  9 14  2  0  0  0  0
  6 15  1  0  0  0  0
  4 16  1  0  0  0  0
M  END
>  <Name>
Fenchlorphos

>  <CAS>
299-84-3

>  <Formula>
C8H8Cl3O3PS

>  <MolWt>
321.55 

>  <Bioactivity>
Ronnel is a Filipino politician, entrepreneur, and businessman and a former councilor and currently serving as Mayor of General Santos. 

>  <Pathways>
Others

>  <Target>
Others

>  <Receptor>
Others

>  <Reference>
1. Kahl S, et al. J Anim Sci. 1985 Jul;61(1):197-202.

$$$$
T1652
  Mrv1561503291623562D          

 28 31  0  0  1  0            999 V2000
    2.3387    0.7029    0.0000 C   0  0  2  0  0  0  0  0  0  0  0  0
    2.8705    0.0722    0.0000 C   0  0  2  0  0  0  0  0  0  0  0  0
    3.6826    0.2174    0.0000 C   0  0  1  0  0  0  0  0  0  0  0  0
    3.9629    0.9934    0.0000 C   0  0  2  0  0  0  0  0  0  0  0  0
    4.7875    0.9666    0.0000 C   0  0  2  0  0  0  0  0  0  0  0  0
    5.5996    1.1118    0.0000 C   0  0  0  0  0  0  0  0  0  0  0  0
    5.8799    1.8877    0.0000 C   0  0  0  0  0  0  0  0  0  0  0  0
    5.3481    2.5184    0.0000 O   0  0  0  0  0  0  0  0  0  0  0  0
    6.1315    0.4811    0.0000 O   0  0  0  0  0  0  0  0  0  0  0  0
    4.7280    1.7894    0.0000 O   0  0  0  0  0  0  0  0  0  0  0  0
    5.0168    0.1741    0.0000 C   0  0  2  0  0  0  0  0  0  0  0  0
    4.3340   -0.2889    0.0000 C   0  0  0  0  0  0  0  0  0  0  0  0
    5.7927   -0.1062    0.0000 C   0  0  0  0  0  0  0  0  0  0  0  0
    4.3228    1.7357    0.0000 C   0  0  0  0  0  0  0  0  0  0  0  0
    3.4311    1.6241    0.0000 C   0  0  0  0  0  0  0  0  0  0  0  0
    2.6190    1.4789    0.0000 C   0  0  2  0  0  0  0  0  0  0  0  0
    2.0872    2.1096    0.0000 O   0  0  0  0  0  0  0  0  0  0  0  0
    2.5902   -0.7037    0.0000 C   0  0  0  0  0  0  0  0  0  0  0  0
    1.7781   -0.8489    0.0000 C   0  0  0  0  0  0  0  0  0  0  0  0
    1.2463   -0.2182    0.0000 C   0  0  0  0  0  0  0  0  0  0  0  0
    0.4342   -0.3634    0.0000 C   0  0  0  0  0  0  0  0  0  0  0  0
   -0.0976    0.2673    0.0000 C   0  0  0  0  0  0  0  0  0  0  0  0
   -0.9098    0.1221    0.0000 O   0  0  0  0  0  0  0  0  0  0  0  0
    0.1827    1.0432    0.0000 C   0  0  0  0  0  0  0  0  0  0  0  0
    0.9948    1.1884    0.0000 C   0  0  0  0  0  0  0  0  0  0  0  0
    1.5266    0.5577    0.0000 C   0  0  2  0  0  0  0  0  0  0  0  0
    1.8069    1.3336    0.0000 C   0  0  0  0  0  0  0  0  0  0  0  0
    2.2792    1.5258    0.0000 F   0  0  0  0  0  0  0  0  0  0  0  0
  1  2  1  0  0  0  0
  2  3  1  0  0  0  0
  3  4  1  0  0  0  0
  4  5  1  0  0  0  0
  5  6  1  1  0  0  0
  6  7  1  0  0  0  0
  7  8  1  0  0  0  0
  6  9  2  0  0  0  0
  5 10  1  6  0  0  0
  5 11  1  0  0  0  0
 11 12  1  0  0  0  0
  3 12  1  1  0  0  0
 11 13  1  1  0  0  0
  4 14  1  1  0  0  0
  4 15  1  0  0  0  0
 15 16  1  0  0  0  0
  1 16  1  0  0  0  0
 16 17  1  1  0  0  0
  2 18  1  6  0  0  0
 18 19  1  0  0  0  0
 19 20  1  0  0  0  0
 20 21  2  0  0  0  0
 21 22  1  0  0  0  0
 22 23  2  0  0  0  0
 22 24  1  0  0  0  0
 24 25  2  0  0  0  0
 25 26  1  0  0  0  0
  1 26  1  0  0  0  0
 20 26  1  0  0  0  0
 26 27  1  1  0  0  0
  1 28  1  6  0  0  0
M  END
>  <Name>
Betamethasone

>  <CAS>
378-44-9

>  <Formula>
C22H29FO5

>  <MolWt>
392.46 

>  <Bioactivity>
A glucocorticoid given orally, parenterally, by local injection, by inhalation, or applied topically in the management of various disorders in which corticosteroids are indicated. Its lack of mineralocorticoid properties makes betamethasone particularly suitable for treating cerebral edema and congenital adrenal hyperplasia. (From Martindale, The Extra Pharmacopoeia, 30th ed, p724)


>  <Pathways>
Endocrinology/ Hormones

>  <Target>
Glucocorticoid Receptor agonist

>  <Receptor>
Glucocorticoid Receptor

>  <Reference>
1. Ortonne JP, et al. J Eur Acad Dermatol Venereol. 2014 Sep;28(9):1226-34.

$$$$
1464-42-2
  Mrv1561503291623562D          

  9  8  0  0  1  0            999 V2000
    4.6184    1.8414    0.0000 C   0  0  1  0  0  0  0  0  0  0  0  0
    4.6184    2.6664    0.0000 N   0  0  0  0  0  0  0  0  0  0  0  0
    3.9039    1.4289    0.0000 C   0  0  0  0  0  0  0  0  0  0  0  0
    3.1895    1.8414    0.0000 C   0  0  0  0  0  0  0  0  0  0  0  0
    2.4750    1.4289    0.0000 Se  0  0  0  0  0  0  0  0  0  0  0  0
    1.7605    1.0164    0.0000 C   0  0  0  0  0  0  0  0  0  0  0  0
    5.3329    1.4289    0.0000 C   0  0  0  0  0  0  0  0  0  0  0  0
    6.0474    1.8414    0.0000 O   0  0  0  0  0  0  0  0  0  0  0  0
    5.3329    0.6039    0.0000 O   0  0  0  0  0  0  0  0  0  0  0  0
  1  2  1  6  0  0  0
  1  3  1  0  0  0  0
  3  4  1  0  0  0  0
  4  5  1  0  0  0  0
  5  6  1  0  0  0  0
  1  7  1  0  0  0  0
  7  8  1  0  0  0  0
  7  9  2  0  0  0  0
M  END
>  <Name>
Selenomethionine

>  <CAS>
1464-42-2

>  <Formula>
C5H11NO2Se

>  <MolWt>
196.11 

>  <Bioactivity>
Diagnostic aid in pancreas function determination.


>  <Pathways>
Amino Acids & Building Blocks

>  <Target>
Amino Acids and Derivatives

>  <Receptor>
Amino Acids and Derivatives

>  <Reference>
1. Cao J, et al. J Anim Sci Biotechnol. 2014 Oct 2;5(1):46. 

$$$$
130209-82-4
  Mrv1561503291623562D          

 31 32  0  0  1  0            999 V2000
    3.0532   -4.8866    0.0000 C   0  0  2  0  0  0  0  0  0  0  0  0
    3.7206   -4.4017    0.0000 C   0  0  2  0  0  0  0  0  0  0  0  0
    4.3881   -4.8866    0.0000 C   0  0  1  0  0  0  0  0  0  0  0  0
    5.1727   -4.6316    0.0000 O   0  0  0  0  0  0  0  0  0  0  0  0
    4.1331   -5.6712    0.0000 C   0  0  0  0  0  0  0  0  0  0  0  0
    3.3081   -5.6712    0.0000 C   0  0  1  0  0  0  0  0  0  0  0  0
    2.8232   -6.3386    0.0000 O   0  0  0  0  0  0  0  0  0  0  0  0
    3.7206   -3.5767    0.0000 C   0  0  0  0  0  0  0  0  0  0  0  0
    4.4351   -3.1642    0.0000 C   0  0  0  0  0  0  0  0  0  0  0  0
    5.1496   -3.5767    0.0000 C   0  0  0  0  0  0  0  0  0  0  0  0
    5.8640   -3.1642    0.0000 C   0  0  0  0  0  0  0  0  0  0  0  0
    6.5785   -3.5767    0.0000 C   0  0  0  0  0  0  0  0  0  0  0  0
    7.2930   -3.1642    0.0000 C   0  0  0  0  0  0  0  0  0  0  0  0
    8.0075   -3.5767    0.0000 C   0  0  0  0  0  0  0  0  0  0  0  0
    8.7219   -3.1642    0.0000 O   0  0  0  0  0  0  0  0  0  0  0  0
    9.4364   -3.5767    0.0000 C   0  0  0  0  0  0  0  0  0  0  0  0
   10.1509   -3.1642    0.0000 C   0  0  0  0  0  0  0  0  0  0  0  0
    9.4364   -4.4017    0.0000 C   0  0  0  0  0  0  0  0  0  0  0  0
    8.0075   -4.4017    0.0000 O   0  0  0  0  0  0  0  0  0  0  0  0
    2.2686   -4.6316    0.0000 C   0  0  0  0  0  0  0  0  0  0  0  0
    2.0970   -3.8247    0.0000 C   0  0  0  0  0  0  0  0  0  0  0  0
    1.3124   -3.5697    0.0000 C   0  0  1  0  0  0  0  0  0  0  0  0
    0.6993   -4.1218    0.0000 O   0  0  0  0  0  0  0  0  0  0  0  0
    1.1409   -2.7628    0.0000 C   0  0  0  0  0  0  0  0  0  0  0  0
    0.3563   -2.5078    0.0000 C   0  0  0  0  0  0  0  0  0  0  0  0
    0.1847   -1.7008    0.0000 C   0  0  0  0  0  0  0  0  0  0  0  0
   -0.5999   -1.4459    0.0000 C   0  0  0  0  0  0  0  0  0  0  0  0
   -0.7714   -0.6389    0.0000 C   0  0  0  0  0  0  0  0  0  0  0  0
   -0.1583   -0.0869    0.0000 C   0  0  0  0  0  0  0  0  0  0  0  0
    0.6263   -0.3418    0.0000 C   0  0  0  0  0  0  0  0  0  0  0  0
    0.7978   -1.1488    0.0000 C   0  0  0  0  0  0  0  0  0  0  0  0
  1  2  1  0  0  0  0
  2  3  1  0  0  0  0
  3  4  1  1  0  0  0
  3  5  1  0  0  0  0
  5  6  1  0  0  0  0
  1  6  1  0  0  0  0
  6  7  1  1  0  0  0
  2  8  1  1  0  0  0
  8  9  1  0  0  0  0
  9 10  2  0  0  0  0
 10 11  1  0  0  0  0
 11 12  1  0  0  0  0
 12 13  1  0  0  0  0
 13 14  1  0  0  0  0
 14 15  1  0  0  0  0
 15 16  1  0  0  0  0
 16 17  1  0  0  0  0
 16 18  1  0  0  0  0
 14 19  2  0  0  0  0
  1 20  1  6  0  0  0
 20 21  1  0  0  0  0
 21 22  1  0  0  0  0
 22 23  1  1  0  0  0
 22 24  1  0  0  0  0
 24 25  1  0  0  0  0
 25 26  1  0  0  0  0
 26 27  2  0  0  0  0
 27 28  1  0  0  0  0
 28 29  2  0  0  0  0
 29 30  1  0  0  0  0
 30 31  2  0  0  0  0
 26 31  1  0  0  0  0
M  END
>  <Name>
Latanoprost

>  <CAS>
130209-82-4

>  <Formula>
C26H40O5

>  <MolWt>
432.59 

>  <Bioactivity>
Latanoprost is a prostaglandin F2a analogue used for controlling the progression of glaucoma or ocular hypertension.

>  <Pathways>
Others

>  <Target>
Others

>  <Receptor>
Others

>  <Reference>
1. Patel SS and CM Spencer Latanoprost. Drugs Aging, 1996. 9(5): p. 363-78.

$$$$
T2543
  Mrv1561503291623562D          

 60 65  0  0  0  0            999 V2000
   -1.0005   -0.1579    0.0000 C   0  0  0  0  0  0  0  0  0  0  0  0
   -0.2905    0.2621    0.0000 C   0  0  0  0  0  0  0  0  0  0  0  0
    0.4580   -0.2059    0.0000 C   0  0  0  0  0  0  0  0  0  0  0  0
    1.0196   -0.8801    0.0000 C   0  0  0  0  0  0  0  0  0  0  0  0
    1.8664   -1.0360    0.0000 C   0  0  0  0  0  0  0  0  0  0  0  0
    2.0533   -1.8396    0.0000 O   0  0  0  0  0  0  0  0  0  0  0  0
    2.5371   -0.5373    0.0000 C   0  0  0  0  0  0  0  0  0  0  0  0
    3.2006   -1.0276    0.0000 C   0  0  0  0  0  0  0  0  0  0  0  0
    3.9570   -0.6982    0.0000 C   0  0  0  0  0  0  0  0  0  0  0  0
    4.0498    0.1216    0.0000 C   0  0  0  0  0  0  0  0  0  0  0  0
    3.3864    0.6119    0.0000 C   0  0  0  0  0  0  0  0  0  0  0  0
    2.6300    0.2825    0.0000 C   0  0  0  0  0  0  0  0  0  0  0  0
    2.0708    0.9469    0.0000 C   0  0  0  0  0  0  0  0  0  0  0  0
    1.2057    1.0937    0.0000 C   0  0  0  0  0  0  0  0  0  0  0  0
    0.8765    0.4182    0.0000 C   0  0  0  0  0  0  0  0  0  0  0  0
    1.6935    0.3034    0.0000 C   0  0  0  0  0  0  0  0  0  0  0  0
    1.3864   -0.2305    0.0000 C   0  0  0  0  0  0  0  0  0  0  0  0
    0.4250    1.5055    0.0000 C   0  0  0  0  0  0  0  0  0  0  0  0
   -0.3386    1.1173    0.0000 C   0  0  0  0  0  0  0  0  0  0  0  0
   -1.0537    1.5288    0.0000 O   0  0  0  0  0  0  0  0  0  0  0  0
   -1.7675    1.1152    0.0000 C   0  0  0  0  0  0  0  0  0  0  0  0
   -1.7663    0.2902    0.0000 O   0  0  0  0  0  0  0  0  0  0  0  0
   -2.4826    1.5267    0.0000 C   0  0  0  0  0  0  0  0  0  0  0  0
   -3.1965    1.1131    0.0000 C   0  0  0  0  0  0  0  0  0  0  0  0
   -3.1953    0.2881    0.0000 C   0  0  0  0  0  0  0  0  0  0  0  0
   -2.4802   -0.1233    0.0000 C   0  0  0  0  0  0  0  0  0  0  0  0
   -2.4790   -0.9483    0.0000 C   0  0  0  0  0  0  0  0  0  0  0  0
   -3.1928   -1.3619    0.0000 C   0  0  0  0  0  0  0  0  0  0  0  0
   -3.9079   -0.9504    0.0000 C   0  0  0  0  0  0  0  0  0  0  0  0
   -3.9091   -0.1254    0.0000 C   0  0  0  0  0  0  0  0  0  0  0  0
   -3.9115    1.5246    0.0000 N   0  0  0  0  0  0  0  0  0  0  0  0
   -4.6254    1.1110    0.0000 C   0  0  0  0  0  0  0  0  0  0  0  0
   -4.6242    0.2860    0.0000 O   0  0  0  0  0  0  0  0  0  0  0  0
   -5.3405    1.5225    0.0000 O   0  0  0  0  0  0  0  0  0  0  0  0
   -6.0544    1.1089    0.0000 C   0  0  0  0  0  0  0  0  0  0  0  0
   -6.7682    0.6954    0.0000 C   0  0  0  0  0  0  0  0  0  0  0  0
   -5.6408    0.3951    0.0000 C   0  0  0  0  0  0  0  0  0  0  0  0
   -6.4679    1.8228    0.0000 C   0  0  0  0  0  0  0  0  0  0  0  0
   -2.4838    2.3517    0.0000 O   0  0  0  0  0  0  0  0  0  0  0  0
    1.4705    1.8750    0.0000 O   0  0  0  0  0  0  0  0  0  0  0  0
    2.4805    1.6630    0.0000 O   0  0  0  0  0  0  0  0  0  0  0  0
    2.0652    2.3758    0.0000 C   0  0  0  0  0  0  0  0  0  0  0  0
    1.2402    2.3726    0.0000 O   0  0  0  0  0  0  0  0  0  0  0  0
    2.4749    3.0919    0.0000 C   0  0  0  0  0  0  0  0  0  0  0  0
    2.0595    3.8048    0.0000 C   0  0  0  0  0  0  0  0  0  0  0  0
    2.4692    4.5208    0.0000 C   0  0  0  0  0  0  0  0  0  0  0  0
    3.2942    4.5241    0.0000 C   0  0  0  0  0  0  0  0  0  0  0  0
    3.7095    3.8113    0.0000 C   0  0  0  0  0  0  0  0  0  0  0  0
    3.2999    3.0952    0.0000 C   0  0  0  0  0  0  0  0  0  0  0  0
    3.8767    1.2754    0.0000 C   0  0  0  0  0  0  0  0  0  0  0  0
    4.5402    0.7851    0.0000 O   0  0  0  0  0  0  0  0  0  0  0  0
    2.8724    1.2572    0.0000 O   0  0  0  0  0  0  0  0  0  0  0  0
    3.1743    2.0250    0.0000 C   0  0  0  0  0  0  0  0  0  0  0  0
    2.6603    2.6703    0.0000 O   0  0  0  0  0  0  0  0  0  0  0  0
    3.9901    2.1475    0.0000 C   0  0  0  0  0  0  0  0  0  0  0  0
    3.1077   -1.8474    0.0000 O   0  0  0  0  0  0  0  0  0  0  0  0
    3.7712   -2.3377    0.0000 C   0  0  0  0  0  0  0  0  0  0  0  0
    2.5383   -1.3623    0.0000 C   0  0  0  0  0  0  0  0  0  0  0  0
    0.6032   -1.5922    0.0000 O   0  0  0  0  0  0  0  0  0  0  0  0
    1.0117   -2.3090    0.0000 C   0  0  0  0  0  0  0  0  0  0  0  0
  1  2  1  0  0  0  0
  2  3  2  0  0  0  0
  3  4  1  0  0  0  0
  4  5  1  0  0  0  0
  5  6  2  0  0  0  0
  5  7  1  0  0  0  0
  7  8  1  0  0  0  0
  8  9  1  0  0  0  0
  9 10  1  0  0  0  0
 10 11  1  0  0  0  0
 11 12  1  0  0  0  0
  7 12  1  0  0  0  0
 12 13  1  0  0  0  0
 13 14  1  0  0  0  0
 14 15  1  0  0  0  0
  3 15  1  0  0  0  0
 15 16  1  0  0  0  0
 15 17  1  0  0  0  0
 14 18  1  0  0  0  0
 18 19  1  0  0  0  0
  2 19  1  0  0  0  0
 19 20  1  0  0  0  0
 20 21  1  0  0  0  0
 21 22  2  0  0  0  0
 21 23  1  0  0  0  0
 23 24  1  0  0  0  0
 24 25  1  0  0  0  0
 25 26  2  0  0  0  0
 26 27  1  0  0  0  0
 27 28  2  0  0  0  0
 28 29  1  0  0  0  0
 29 30  2  0  0  0  0
 25 30  1  0  0  0  0
 24 31  1  0  0  0  0
 31 32  1  0  0  0  0
 32 33  2  0  0  0  0
 32 34  1  0  0  0  0
 34 35  1  0  0  0  0
 35 36  1  0  0  0  0
 35 37  1  0  0  0  0
 35 38  1  0  0  0  0
 23 39  1  0  0  0  0
 14 40  1  0  0  0  0
 13 41  1  0  0  0  0
 41 42  1  0  0  0  0
 42 43  2  0  0  0  0
 42 44  1  0  0  0  0
 44 45  2  0  0  0  0
 45 46  1  0  0  0  0
 46 47  2  0  0  0  0
 47 48  1  0  0  0  0
 48 49  2  0  0  0  0
 44 49  1  0  0  0  0
 11 50  1  0  0  0  0
 50 51  1  0  0  0  0
 10 51  1  0  0  0  0
 11 52  1  0  0  0  0
 52 53  1  0  0  0  0
 53 54  2  0  0  0  0
 53 55  1  0  0  0  0
  8 56  1  0  0  0  0
 56 57  1  0  0  0  0
  7 58  1  0  0  0  0
  4 59  1  0  0  0  0
 59 60  1  0  0  0  0
M  END
>  <Name>
Cabazitaxel

>  <CAS>
183133-96-2

>  <Formula>
C45H57NO14

>  <MolWt>
835.93 

>  <Bioactivity>
Cabazitaxel(XRP6258; RPR-116258A) is a semi-synthetic derivative of the natural taxoid 10-deacetylbaccatin III with potential antineoplastic activity.

>  <Pathways>
Cell Cycle/Checkpoint

>  <Target>
Microtubule Associated inhibitor

>  <Receptor>
Microtubule/Tubulin

>  <Reference>
1. Pal SK, et al. Clin Interv Aging, 2010, 5, 395-402.

$$$$
122-66-7
  Mrv1561503291623562D          

 14 15  0  0  0  0            999 V2000
    0.7145   -2.8875    0.0000 C   0  0  0  0  0  0  0  0  0  0  0  0
    1.4289   -2.4750    0.0000 C   0  0  0  0  0  0  0  0  0  0  0  0
    1.4289   -1.6500    0.0000 N   0  0  0  0  0  0  0  0  0  0  0  0
    0.7145   -1.2375    0.0000 N   0  0  0  0  0  0  0  0  0  0  0  0
    0.7145   -0.4125    0.0000 C   0  0  0  0  0  0  0  0  0  0  0  0
    0.0000    0.0000    0.0000 C   0  0  0  0  0  0  0  0  0  0  0  0
    0.0000    0.8250    0.0000 C   0  0  0  0  0  0  0  0  0  0  0  0
    0.7145    1.2375    0.0000 C   0  0  0  0  0  0  0  0  0  0  0  0
    1.4289    0.8250    0.0000 C   0  0  0  0  0  0  0  0  0  0  0  0
    1.4289   -0.0000    0.0000 C   0  0  0  0  0  0  0  0  0  0  0  0
    2.1434   -2.8875    0.0000 C   0  0  0  0  0  0  0  0  0  0  0  0
    2.1434   -3.7125    0.0000 C   0  0  0  0  0  0  0  0  0  0  0  0
    1.4289   -4.1250    0.0000 C   0  0  0  0  0  0  0  0  0  0  0  0
    0.7145   -3.7125    0.0000 C   0  0  0  0  0  0  0  0  0  0  0  0
  1  2  2  0  0  0  0
  2  3  1  0  0  0  0
  3  4  1  0  0  0  0
  4  5  1  0  0  0  0
  5  6  2  0  0  0  0
  6  7  1  0  0  0  0
  7  8  2  0  0  0  0
  8  9  1  0  0  0  0
  9 10  2  0  0  0  0
  5 10  1  0  0  0  0
  2 11  1  0  0  0  0
 11 12  2  0  0  0  0
 12 13  1  0  0  0  0
 13 14  2  0  0  0  0
  1 14  1  0  0  0  0
M  END
>  <Name>
1,2-Diphenylhydrazine

>  <CAS>
122-66-7

>  <Formula>
C12H12N2

>  <MolWt>
184.24 

>  <Bioactivity>
Pharmaceutical industry for the production of antipyretic analgesics bute; dye industry used in the manufacture of benzidine dyes , etc.

>  <Pathways>
Others

>  <Target>
Intermediates

>  <Receptor>
Others

>  <Reference>
N

$$$$
441798-33-0
  Mrv1561503291623562D          

 32 34  0  0  0  0            999 V2000
   -2.1434    4.5375    0.0000 C   0  0  0  0  0  0  0  0  0  0  0  0
   -2.1434    3.7125    0.0000 C   0  0  0  0  0  0  0  0  0  0  0  0
   -1.4289    3.3000    0.0000 C   0  0  0  0  0  0  0  0  0  0  0  0
   -1.4289    2.4750    0.0000 N   0  0  0  0  0  0  0  0  0  0  0  0
   -0.7145    2.0625    0.0000 S   0  0  0  0  0  0  0  0  0  0  0  0
   -1.1270    1.3480    0.0000 O   0  0  0  0  0  0  0  0  0  0  0  0
   -0.3020    2.7770    0.0000 O   0  0  0  0  0  0  0  0  0  0  0  0
   -0.0000    1.6500    0.0000 N   0  0  0  0  0  0  0  0  0  0  0  0
   -0.0000    0.8250    0.0000 C   0  0  0  0  0  0  0  0  0  0  0  0
    0.7145    0.4125    0.0000 C   0  0  0  0  0  0  0  0  0  0  0  0
    0.7145   -0.4125    0.0000 C   0  0  0  0  0  0  0  0  0  0  0  0
   -0.0000   -0.8250    0.0000 N   0  0  0  0  0  0  0  0  0  0  0  0
   -0.7145   -0.4125    0.0000 C   0  0  0  0  0  0  0  0  0  0  0  0
   -0.7145    0.4125    0.0000 N   0  0  0  0  0  0  0  0  0  0  0  0
    1.4289   -0.8250    0.0000 O   0  0  0  0  0  0  0  0  0  0  0  0
    2.1434   -0.4125    0.0000 C   0  0  0  0  0  0  0  0  0  0  0  0
    2.8579   -0.8250    0.0000 C   0  0  0  0  0  0  0  0  0  0  0  0
    3.5724   -0.4125    0.0000 O   0  0  0  0  0  0  0  0  0  0  0  0
    4.2868   -0.8250    0.0000 C   0  0  0  0  0  0  0  0  0  0  0  0
    5.0013   -0.4125    0.0000 N   0  0  0  0  0  0  0  0  0  0  0  0
    5.7158   -0.8250    0.0000 C   0  0  0  0  0  0  0  0  0  0  0  0
    5.7158   -1.6500    0.0000 C   0  0  0  0  0  0  0  0  0  0  0  0
    5.0013   -2.0625    0.0000 C   0  0  0  0  0  0  0  0  0  0  0  0
    4.2868   -1.6500    0.0000 N   0  0  0  0  0  0  0  0  0  0  0  0
    6.4302   -2.0625    0.0000 Br  0  0  0  0  0  0  0  0  0  0  0  0
    1.4289    0.8250    0.0000 C   0  0  0  0  0  0  0  0  0  0  0  0
    1.4289    1.6500    0.0000 C   0  0  0  0  0  0  0  0  0  0  0  0
    2.1434    2.0625    0.0000 C   0  0  0  0  0  0  0  0  0  0  0  0
    2.8579    1.6500    0.0000 C   0  0  0  0  0  0  0  0  0  0  0  0
    2.8579    0.8250    0.0000 C   0  0  0  0  0  0  0  0  0  0  0  0
    2.1434    0.4125    0.0000 C   0  0  0  0  0  0  0  0  0  0  0  0
    3.5724    2.0625    0.0000 Br  0  0  0  0  0  0  0  0  0  0  0  0
  1  2  1  0  0  0  0
  2  3  1  0  0  0  0
  3  4  1  0  0  0  0
  4  5  1  0  0  0  0
  5  6  2  0  0  0  0
  5  7  2  0  0  0  0
  5  8  1  0  0  0  0
  8  9  1  0  0  0  0
  9 10  2  0  0  0  0
 10 11  1  0  0  0  0
 11 12  2  0  0  0  0
 12 13  1  0  0  0  0
 13 14  2  0  0  0  0
  9 14  1  0  0  0  0
 11 15  1  0  0  0  0
 15 16  1  0  0  0  0
 16 17  1  0  0  0  0
 17 18  1  0  0  0  0
 18 19  1  0  0  0  0
 19 20  2  0  0  0  0
 20 21  1  0  0  0  0
 21 22  2  0  0  0  0
 22 23  1  0  0  0  0
 23 24  2  0  0  0  0
 19 24  1  0  0  0  0
 22 25  1  0  0  0  0
 10 26  1  0  0  0  0
 26 27  2  0  0  0  0
 27 28  1  0  0  0  0
 28 29  2  0  0  0  0
 29 30  1  0  0  0  0
 30 31  2  0  0  0  0
 26 31  1  0  0  0  0
 29 32  1  0  0  0  0
M  END
>  <Name>
Macitentan

>  <CAS>
441798-33-0

>  <Formula>
C19H20Br2N6O4S

>  <MolWt>
588.27 

>  <Bioactivity>
Macitentan is an orally active, non-peptide, dual ETA/ETB (endothelin) receptor antagonist with IC50 of 0.5 nM/391 nM.

>  <Pathways>
GPCR/G Protein

>  <Target>
Endothelin Receptor antagonist

>  <Receptor>
ET-A/ET-B

>  <Reference>
1. Iglarz M, et al. J Pharmacol Exp Ther, 2008, 327(3), 736-745.

$$$$
107-41-5
  Mrv1561503291623562D          

  8  7  0  0  0  0            999 V2000
    1.2375    0.7145    0.0000 C   0  0  0  0  0  0  0  0  0  0  0  0
    0.8250    1.4289    0.0000 C   0  0  0  0  0  0  0  0  0  0  0  0
    0.4125    2.1434    0.0000 C   0  0  0  0  0  0  0  0  0  0  0  0
    0.1105    1.0164    0.0000 C   0  0  0  0  0  0  0  0  0  0  0  0
    1.5395    1.8414    0.0000 O   0  0  0  0  0  0  0  0  0  0  0  0
    0.8250    0.0000    0.0000 C   0  0  0  0  0  0  0  0  0  0  0  0
    1.2375   -0.7145    0.0000 C   0  0  0  0  0  0  0  0  0  0  0  0
    0.0000    0.0000    0.0000 O   0  0  0  0  0  0  0  0  0  0  0  0
  1  2  1  0  0  0  0
  2  3  1  0  0  0  0
  2  4  1  0  0  0  0
  2  5  1  0  0  0  0
  1  6  1  0  0  0  0
  6  7  1  0  0  0  0
  6  8  1  0  0  0  0
M  END
>  <Name>
Diolane

>  <CAS>
107-41-5

>  <Formula>
C6H14O2

>  <MolWt>
118.17 

>  <Bioactivity>
This colourless liquid is a chiral diol. It is produced industrially from diacetone alcohol by hydrogenation.

>  <Pathways>
Others

>  <Target>
Others

>  <Receptor>
Others

>  <Reference>
1. Magneron I, et al. Environ Sci Technol. 2003 Sep 15;37(18):4170-81.

$$$$
T1507
  Mrv1561503291623562D          

 18 18  0  0  1  0            999 V2000
   -0.0000   -1.6500    0.0000 C   0  0  2  0  0  0  0  0  0  0  0  0
    0.7145   -2.0625    0.0000 N   0  0  0  0  0  0  0  0  0  0  0  0
    1.4289   -1.6500    0.0000 C   0  0  0  0  0  0  0  0  0  0  0  0
    1.4289   -0.8250    0.0000 O   0  0  0  0  0  0  0  0  0  0  0  0
    2.1434   -2.0625    0.0000 N   0  0  0  0  0  0  0  0  0  0  0  0
    2.8579   -1.6500    0.0000 N   0  0  0  0  0  0  0  0  0  0  0  0
    3.5724   -2.0625    0.0000 O   0  0  0  0  0  0  0  0  0  0  0  0
    2.1434   -2.8875    0.0000 C   0  0  0  0  0  0  0  0  0  0  0  0
   -0.7145   -2.0625    0.0000 C   0  0  1  0  0  0  0  0  0  0  0  0
   -0.7145   -2.8875    0.0000 O   0  0  0  0  0  0  0  0  0  0  0  0
   -1.4289   -1.6500    0.0000 C   0  0  2  0  0  0  0  0  0  0  0  0
   -2.1434   -2.0625    0.0000 O   0  0  0  0  0  0  0  0  0  0  0  0
   -1.4289   -0.8250    0.0000 C   0  0  2  0  0  0  0  0  0  0  0  0
   -0.7145   -0.4125    0.0000 O   0  0  0  0  0  0  0  0  0  0  0  0
   -0.0000   -0.8250    0.0000 C   0  0  2  0  0  0  0  0  0  0  0  0
    0.7145   -0.4125    0.0000 O   0  0  0  0  0  0  0  0  0  0  0  0
   -2.1434   -0.4125    0.0000 C   0  0  0  0  0  0  0  0  0  0  0  0
   -2.8579   -0.8250    0.0000 O   0  0  0  0  0  0  0  0  0  0  0  0
  1  2  1  6  0  0  0
  2  3  1  0  0  0  0
  3  4  2  0  0  0  0
  3  5  1  0  0  0  0
  5  6  1  0  0  0  0
  6  7  2  0  0  0  0
  5  8  1  0  0  0  0
  1  9  1  0  0  0  0
  9 10  1  1  0  0  0
  9 11  1  0  0  0  0
 11 12  1  6  0  0  0
 11 13  1  0  0  0  0
 13 14  1  0  0  0  0
 14 15  1  0  0  0  0
  1 15  1  0  0  0  0
 15 16  1  6  0  0  0
 13 17  1  1  0  0  0
 17 18  1  0  0  0  0
M  END
>  <Name>
Streptozocin

>  <CAS>
18883-66-4

>  <Formula>
C8H15N3O7

>  <MolWt>
265.22 

>  <Bioactivity>
An antibiotic that is produced by Stretomyces achromogenes. It is used as an antineoplastic agent and to induce diabetes in experimental animals.


>  <Pathways>
DNA Damage/DNA Repair;Microbiology & Virology

>  <Target>
Antibiotic;DNA alkylation

>  <Receptor>
DNA alkylation

>  <Reference>
1. Arison RN, et al. Diabetes, 1967, 16(1), 51-56.

$$$$
T1782
  Mrv1561503291623562D          

 31 34  0  0  0  0            999 V2000
    2.1434   -1.2375    0.0000 C   0  0  0  0  0  0  0  0  0  0  0  0
    2.1434   -0.4125    0.0000 C   0  0  0  0  0  0  0  0  0  0  0  0
    1.4289    0.0000    0.0000 C   0  0  0  0  0  0  0  0  0  0  0  0
    1.4289    0.8250    0.0000 C   0  0  0  0  0  0  0  0  0  0  0  0
    2.1434    1.2375    0.0000 C   0  0  0  0  0  0  0  0  0  0  0  0
    2.8579    0.8250    0.0000 C   0  0  0  0  0  0  0  0  0  0  0  0
    2.8579    0.0000    0.0000 C   0  0  0  0  0  0  0  0  0  0  0  0
    2.1434    2.0625    0.0000 C   0  0  0  0  0  0  0  0  0  0  0  0
    1.4289    2.4750    0.0000 C   0  0  0  0  0  0  0  0  0  0  0  0
    1.4289    3.3000    0.0000 C   0  0  0  0  0  0  0  0  0  0  0  0
    2.1434    3.7125    0.0000 C   0  0  0  0  0  0  0  0  0  0  0  0
    2.8579    3.3000    0.0000 C   0  0  0  0  0  0  0  0  0  0  0  0
    2.8579    2.4750    0.0000 O   0  0  0  0  0  0  0  0  0  0  0  0
    3.5724    3.7125    0.0000 C   0  0  0  0  0  0  0  0  0  0  0  0
    3.5724    4.5375    0.0000 O   0  0  0  0  0  0  0  0  0  0  0  0
    2.1434    4.5375    0.0000 O   0  0  0  0  0  0  0  0  0  0  0  0
    0.7145    3.7125    0.0000 O   0  0  0  0  0  0  0  0  0  0  0  0
    0.7145    2.0625    0.0000 O   0  0  0  0  0  0  0  0  0  0  0  0
    0.7145   -0.4125    0.0000 C   0  0  0  0  0  0  0  0  0  0  0  0
    0.7145   -1.2375    0.0000 C   0  0  0  0  0  0  0  0  0  0  0  0
    1.3819   -1.7224    0.0000 C   0  0  0  0  0  0  0  0  0  0  0  0
    1.1270   -2.5070    0.0000 C   0  0  0  0  0  0  0  0  0  0  0  0
    0.3020   -2.5070    0.0000 C   0  0  0  0  0  0  0  0  0  0  0  0
    0.0470   -1.7224    0.0000 S   0  0  0  0  0  0  0  0  0  0  0  0
   -0.1830   -3.1745    0.0000 C   0  0  0  0  0  0  0  0  0  0  0  0
    0.1526   -3.9282    0.0000 C   0  0  0  0  0  0  0  0  0  0  0  0
   -0.3323   -4.5956    0.0000 C   0  0  0  0  0  0  0  0  0  0  0  0
   -1.1528   -4.5094    0.0000 C   0  0  0  0  0  0  0  0  0  0  0  0
   -1.4884   -3.7557    0.0000 C   0  0  0  0  0  0  0  0  0  0  0  0
   -1.0034   -3.0882    0.0000 C   0  0  0  0  0  0  0  0  0  0  0  0
   -1.6377   -5.1768    0.0000 F   0  0  0  0  0  0  0  0  0  0  0  0
  1  2  1  0  0  0  0
  2  3  2  0  0  0  0
  3  4  1  0  0  0  0
  4  5  2  0  0  0  0
  5  6  1  0  0  0  0
  6  7  2  0  0  0  0
  2  7  1  0  0  0  0
  5  8  1  0  0  0  0
  8  9  1  0  0  0  0
  9 10  1  0  0  0  0
 10 11  1  0  0  0  0
 11 12  1  0  0  0  0
 12 13  1  0  0  0  0
  8 13  1  0  0  0  0
 12 14  1  0  0  0  0
 14 15  1  0  0  0  0
 11 16  1  0  0  0  0
 10 17  1  0  0  0  0
  9 18  1  0  0  0  0
  3 19  1  0  0  0  0
 19 20  1  0  0  0  0
 20 21  2  0  0  0  0
 21 22  1  0  0  0  0
 22 23  2  0  0  0  0
 23 24  1  0  0  0  0
 20 24  1  0  0  0  0
 23 25  1  0  0  0  0
 25 26  2  0  0  0  0
 26 27  1  0  0  0  0
 27 28  2  0  0  0  0
 28 29  1  0  0  0  0
 29 30  2  0  0  0  0
 25 30  1  0  0  0  0
 28 31  1  0  0  0  0
M  END
>  <Name>
Canagliflozin

>  <CAS>
842133-18-0

>  <Formula>
C24H25FO5S

>  <MolWt>
444.52 

>  <Bioactivity>
Canagliflozin(JNJ 28431754; TA 7284) is a highly potent and selective SGLT2 inhibitor for hSGLT2 with IC50 of 2.2 nM, exhibits 413-fold selectivity over hSGLT1.

>  <Pathways>
Membrane Transporter/Ion Channel

>  <Target>
SGLT inhibitor

>  <Receptor>
SGLT2

>  <Reference>
1. Liang Y, et al. PLoS One. 2012, 7(2), e30555.


$$$$
T2119
  Mrv1561503291623562D          

 61 68  0  0  0  0            999 V2000
    7.9213   -4.6148    0.0000 C   0  0  0  0  0  0  0  0  0  0  0  0
    7.6391   -3.8396    0.0000 C   0  0  0  0  0  0  0  0  0  0  0  0
    7.6391   -3.0146    0.0000 C   0  0  0  0  0  0  0  0  0  0  0  0
    6.9246   -2.6021    0.0000 C   0  0  0  0  0  0  0  0  0  0  0  0
    6.2102   -3.0146    0.0000 C   0  0  0  0  0  0  0  0  0  0  0  0
    6.2102   -3.8396    0.0000 C   0  0  0  0  0  0  0  0  0  0  0  0
    6.9246   -4.2521    0.0000 C   0  0  0  0  0  0  0  0  0  0  0  0
    5.4957   -4.2521    0.0000 C   0  0  0  0  0  0  0  0  0  0  0  0
    5.4957   -5.0771    0.0000 C   0  0  0  0  0  0  0  0  0  0  0  0
    4.7812   -5.4896    0.0000 C   0  0  0  0  0  0  0  0  0  0  0  0
    4.0668   -5.0771    0.0000 C   0  0  0  0  0  0  0  0  0  0  0  0
    4.0668   -4.2521    0.0000 C   0  0  0  0  0  0  0  0  0  0  0  0
    4.7812   -3.8396    0.0000 C   0  0  0  0  0  0  0  0  0  0  0  0
    3.3523   -5.4896    0.0000 Cl  0  0  0  0  0  0  0  0  0  0  0  0
    5.4957   -2.6021    0.0000 C   0  0  0  0  0  0  0  0  0  0  0  0
    5.4957   -1.7771    0.0000 N   0  0  0  0  0  0  0  0  0  0  0  0
    4.7812   -1.3646    0.0000 C   0  0  0  0  0  0  0  0  0  0  0  0
    4.7812   -0.5396    0.0000 C   0  0  0  0  0  0  0  0  0  0  0  0
    5.4957   -0.1271    0.0000 N   0  0  0  0  0  0  0  0  0  0  0  0
    6.2102   -0.5396    0.0000 C   0  0  0  0  0  0  0  0  0  0  0  0
    6.2102   -1.3646    0.0000 C   0  0  0  0  0  0  0  0  0  0  0  0
    5.4957    0.6979    0.0000 C   0  0  0  0  0  0  0  0  0  0  0  0
    4.7812    1.1104    0.0000 C   0  0  0  0  0  0  0  0  0  0  0  0
    4.7812    1.9354    0.0000 C   0  0  0  0  0  0  0  0  0  0  0  0
    5.4957    2.3479    0.0000 C   0  0  0  0  0  0  0  0  0  0  0  0
    6.2102    1.9354    0.0000 C   0  0  0  0  0  0  0  0  0  0  0  0
    6.2102    1.1104    0.0000 C   0  0  0  0  0  0  0  0  0  0  0  0
    5.4957    3.1729    0.0000 C   0  0  0  0  0  0  0  0  0  0  0  0
    4.7812    3.5854    0.0000 O   0  0  0  0  0  0  0  0  0  0  0  0
    6.2102    3.5854    0.0000 N   0  0  0  0  0  0  0  0  0  0  0  0
    6.2102    4.4104    0.0000 S   0  0  0  0  0  0  0  0  0  0  0  0
    7.0352    4.4104    0.0000 O   0  0  0  0  0  0  0  0  0  0  0  0
    5.3852    4.4104    0.0000 O   0  0  0  0  0  0  0  0  0  0  0  0
    6.2102    5.2354    0.0000 C   0  0  0  0  0  0  0  0  0  0  0  0
    5.4957    5.6479    0.0000 C   0  0  0  0  0  0  0  0  0  0  0  0
    5.4957    6.4729    0.0000 C   0  0  0  0  0  0  0  0  0  0  0  0
    6.2102    6.8854    0.0000 C   0  0  0  0  0  0  0  0  0  0  0  0
    6.9246    6.4729    0.0000 C   0  0  0  0  0  0  0  0  0  0  0  0
    6.9246    5.6479    0.0000 C   0  0  0  0  0  0  0  0  0  0  0  0
    6.2102    7.7104    0.0000 N   0  0  0  0  0  0  0  0  0  0  0  0
    5.4957    8.1229    0.0000 C   0  0  0  0  0  0  0  0  0  0  0  0
    5.4957    8.9479    0.0000 C   0  0  0  0  0  0  0  0  0  0  0  0
    4.7812    9.3604    0.0000 C   0  0  0  0  0  0  0  0  0  0  0  0
    4.7812   10.1854    0.0000 C   0  0  0  0  0  0  0  0  0  0  0  0
    5.4957   10.5979    0.0000 O   0  0  0  0  0  0  0  0  0  0  0  0
    6.2102   10.1854    0.0000 C   0  0  0  0  0  0  0  0  0  0  0  0
    6.2102    9.3604    0.0000 C   0  0  0  0  0  0  0  0  0  0  0  0
    4.7812    6.8854    0.0000 N   0  3  0  0  0  0  0  0  0  0  0  0
    4.7812    7.7104    0.0000 O   0  0  0  0  0  0  0  0  0  0  0  0
    4.0668    6.4729    0.0000 O   0  5  0  0  0  0  0  0  0  0  0  0
    4.0668    2.3479    0.0000 O   0  0  0  0  0  0  0  0  0  0  0  0
    3.3523    1.9354    0.0000 C   0  0  0  0  0  0  0  0  0  0  0  0
    3.3523    1.1104    0.0000 C   0  0  0  0  0  0  0  0  0  0  0  0
    2.6378    0.6979    0.0000 N   0  0  0  0  0  0  0  0  0  0  0  0
    1.9233    1.1104    0.0000 C   0  0  0  0  0  0  0  0  0  0  0  0
    1.9233    1.9354    0.0000 C   0  0  0  0  0  0  0  0  0  0  0  0
    2.6378    2.3479    0.0000 C   0  0  0  0  0  0  0  0  0  0  0  0
    1.1387    2.1904    0.0000 C   0  0  0  0  0  0  0  0  0  0  0  0
    0.6538    1.5229    0.0000 C   0  0  0  0  0  0  0  0  0  0  0  0
    1.1387    0.8555    0.0000 N   0  0  0  0  0  0  0  0  0  0  0  0
    8.4516   -3.6963    0.0000 C   0  0  0  0  0  0  0  0  0  0  0  0
  1  2  1  0  0  0  0
  2  3  1  0  0  0  0
  3  4  1  0  0  0  0
  4  5  1  0  0  0  0
  5  6  2  0  0  0  0
  6  7  1  0  0  0  0
  2  7  1  0  0  0  0
  6  8  1  0  0  0  0
  8  9  2  0  0  0  0
  9 10  1  0  0  0  0
 10 11  2  0  0  0  0
 11 12  1  0  0  0  0
 12 13  2  0  0  0  0
  8 13  1  0  0  0  0
 11 14  1  0  0  0  0
  5 15  1  0  0  0  0
 15 16  1  0  0  0  0
 16 17  1  0  0  0  0
 17 18  1  0  0  0  0
 18 19  1  0  0  0  0
 19 20  1  0  0  0  0
 20 21  1  0  0  0  0
 16 21  1  0  0  0  0
 19 22  1  0  0  0  0
 22 23  2  0  0  0  0
 23 24  1  0  0  0  0
 24 25  2  0  0  0  0
 25 26  1  0  0  0  0
 26 27  2  0  0  0  0
 22 27  1  0  0  0  0
 25 28  1  0  0  0  0
 28 29  2  0  0  0  0
 28 30  1  0  0  0  0
 30 31  1  0  0  0  0
 31 32  2  0  0  0  0
 31 33  2  0  0  0  0
 31 34  1  0  0  0  0
 34 35  2  0  0  0  0
 35 36  1  0  0  0  0
 36 37  2  0  0  0  0
 37 38  1  0  0  0  0
 38 39  2  0  0  0  0
 34 39  1  0  0  0  0
 37 40  1  0  0  0  0
 40 41  1  0  0  0  0
 41 42  1  0  0  0  0
 42 43  1  0  0  0  0
 43 44  1  0  0  0  0
 44 45  1  0  0  0  0
 45 46  1  0  0  0  0
 46 47  1  0  0  0  0
 42 47  1  0  0  0  0
 36 48  1  0  0  0  0
 48 49  2  0  0  0  0
 48 50  1  0  0  0  0
 24 51  1  0  0  0  0
 51 52  1  0  0  0  0
 52 53  2  0  0  0  0
 53 54  1  0  0  0  0
 54 55  2  0  0  0  0
 55 56  1  0  0  0  0
 56 57  2  0  0  0  0
 52 57  1  0  0  0  0
 56 58  1  0  0  0  0
 58 59  2  0  0  0  0
 59 60  1  0  0  0  0
 55 60  1  0  0  0  0
  2 61  1  0  0  0  0
M  CHG  2  48   1  50  -1
M  END
>  <Name>
ABT-199 (GDC-0199)

>  <CAS>
1257044-40-8

>  <Formula>
C45H50ClN7O7S

>  <MolWt>
868.44 

>  <Bioactivity>
Abiraterone Acetate is an orally active acetate salt of the steroidal compound abiraterone with antiandrogen activity. Abiraterone inhibits the enzymatic activity of steroid 17alpha-monooxygenase (17alpha-hydrolase/C17,20 lyase complex), a member of the cytochrome p450 family that catalyzes the 17alpha-hydroxylation of steroid intermediates involved in testosterone synthesis. Administration of this agent may suppress testosterone production by both the testes and the adrenals to castrate-range levels.

>  <Pathways>
Apoptosis 

>  <Target>
Bcl-2 inhibitor

>  <Receptor>
Bcl-2

>  <Reference>
1. Souers AJ, et al. Nat Med, 2013, 19(2), 202-208.

$$$$
T2213
  Mrv1561503291623562D          

 36 40  0  0  1  0            999 V2000
    1.4289   -4.9500    0.0000 C   0  0  2  0  0  0  0  0  0  0  0  0
    0.8769   -4.3369    0.0000 C   0  0  0  0  0  0  0  0  0  0  0  0
    0.0699   -4.5084    0.0000 C   0  0  0  0  0  0  0  0  0  0  0  0
   -0.4821   -3.8953    0.0000 C   0  0  0  0  0  0  0  0  0  0  0  0
   -0.2272   -3.1107    0.0000 C   0  0  0  0  0  0  0  0  0  0  0  0
    0.5798   -2.9392    0.0000 C   0  0  0  0  0  0  0  0  0  0  0  0
    1.1318   -3.5523    0.0000 C   0  0  0  0  0  0  0  0  0  0  0  0
    1.9388   -3.3808    0.0000 Cl  0  0  0  0  0  0  0  0  0  0  0  0
   -0.7792   -2.4976    0.0000 Cl  0  0  0  0  0  0  0  0  0  0  0  0
    2.0964   -5.4349    0.0000 O   0  0  0  0  0  0  0  0  0  0  0  0
    1.8414   -6.2195    0.0000 C   0  0  1  0  0  0  0  0  0  0  0  0
    2.3264   -6.8870    0.0000 C   0  0  0  0  0  0  0  0  0  0  0  0
    3.1468   -6.8007    0.0000 O   0  0  0  0  0  0  0  0  0  0  0  0
    3.6318   -7.4682    0.0000 C   0  0  0  0  0  0  0  0  0  0  0  0
    4.4522   -7.3820    0.0000 C   0  0  0  0  0  0  0  0  0  0  0  0
    4.9372   -8.0494    0.0000 C   0  0  0  0  0  0  0  0  0  0  0  0
    4.6016   -8.8031    0.0000 C   0  0  0  0  0  0  0  0  0  0  0  0
    5.0865   -9.4705    0.0000 N   0  0  0  0  0  0  0  0  0  0  0  0
    5.9070   -9.3843    0.0000 C   0  0  0  0  0  0  0  0  0  0  0  0
    6.3919  -10.0517    0.0000 C   0  0  0  0  0  0  0  0  0  0  0  0
    6.0564  -10.8054    0.0000 N   0  0  0  0  0  0  0  0  0  0  0  0
    6.5413  -11.4728    0.0000 C   0  0  0  0  0  0  0  0  0  0  0  0
    7.3618  -11.3866    0.0000 C   0  0  0  0  0  0  0  0  0  0  0  0
    6.2057  -12.2265    0.0000 C   0  0  0  0  0  0  0  0  0  0  0  0
    5.2359  -10.8916    0.0000 C   0  0  0  0  0  0  0  0  0  0  0  0
    4.7510  -10.2242    0.0000 C   0  0  0  0  0  0  0  0  0  0  0  0
    3.7811   -8.8893    0.0000 C   0  0  0  0  0  0  0  0  0  0  0  0
    3.2962   -8.2219    0.0000 C   0  0  0  0  0  0  0  0  0  0  0  0
    1.0164   -6.2195    0.0000 C   0  0  0  0  0  0  0  0  0  0  0  0
    0.7615   -5.4349    0.0000 O   0  0  0  0  0  0  0  0  0  0  0  0
    1.9810   -4.3369    0.0000 C   0  0  0  0  0  0  0  0  0  0  0  0
    2.7879   -4.5084    0.0000 N   0  0  0  0  0  0  0  0  0  0  0  0
    3.4010   -3.9564    0.0000 C   0  0  0  0  0  0  0  0  0  0  0  0
    4.1155   -4.3689    0.0000 N   0  0  0  0  0  0  0  0  0  0  0  0
    3.9440   -5.1759    0.0000 C   0  0  0  0  0  0  0  0  0  0  0  0
    3.1235   -5.2621    0.0000 N   0  0  0  0  0  0  0  0  0  0  0  0
  1  2  1  6  0  0  0
  2  3  2  0  0  0  0
  3  4  1  0  0  0  0
  4  5  2  0  0  0  0
  5  6  1  0  0  0  0
  6  7  2  0  0  0  0
  2  7  1  0  0  0  0
  7  8  1  0  0  0  0
  5  9  1  0  0  0  0
  1 10  1  0  0  0  0
 10 11  1  0  0  0  0
 11 12  1  1  0  0  0
 12 13  1  0  0  0  0
 13 14  1  0  0  0  0
 14 15  2  0  0  0  0
 15 16  1  0  0  0  0
 16 17  2  0  0  0  0
 17 18  1  0  0  0  0
 18 19  1  0  0  0  0
 19 20  1  0  0  0  0
 20 21  1  0  0  0  0
 21 22  1  0  0  0  0
 22 23  1  0  0  0  0
 22 24  1  0  0  0  0
 21 25  1  0  0  0  0
 25 26  1  0  0  0  0
 18 26  1  0  0  0  0
 17 27  1  0  0  0  0
 27 28  2  0  0  0  0
 14 28  1  0  0  0  0
 11 29  1  0  0  0  0
 29 30  1  0  0  0  0
  1 30  1  0  0  0  0
  1 31  1  1  0  0  0
 31 32  1  0  0  0  0
 32 33  1  0  0  0  0
 33 34  2  0  0  0  0
 34 35  1  0  0  0  0
 35 36  2  0  0  0  0
 32 36  1  0  0  0  0
M  END
>  <Name>
Terconazole

>  <CAS>
67915-31-5

>  <Formula>
C26H31Cl2N5O3

>  <MolWt>
532.46 

>  <Bioactivity>
Arecoline is a muscarinic acetylcholine receptor agonist. Arecoline induces ADP ribosylation of histones and chromatid relaxation in spleen and bone marrow cells.

>  <Pathways>
Microbiology & Virology

>  <Target>
Antibiotic

>  <Receptor>
14-? Demethylase

>  <Reference>
1. Zhao XY, et al. Chin Med J (Engl). 2012 Mar;125(6):1068-75.

$$$$
T1852
  Mrv1561503291623562D          

 22 23  0  0  0  0            999 V2000
   -0.7145   -3.7125    0.0000 C   0  0  0  0  0  0  0  0  0  0  0  0
   -1.4289   -3.3000    0.0000 C   0  0  0  0  0  0  0  0  0  0  0  0
   -1.4289   -2.4750    0.0000 C   0  0  0  0  0  0  0  0  0  0  0  0
   -0.7145   -2.0625    0.0000 C   0  0  0  0  0  0  0  0  0  0  0  0
   -0.0000   -2.4750    0.0000 C   0  0  0  0  0  0  0  0  0  0  0  0
   -0.0000   -3.3000    0.0000 C   0  0  0  0  0  0  0  0  0  0  0  0
   -0.7145   -1.2375    0.0000 N   0  0  0  0  0  0  0  0  0  0  0  0
   -1.4289   -0.8250    0.0000 S   0  0  0  0  0  0  0  0  0  0  0  0
   -1.0164   -0.1105    0.0000 O   0  0  0  0  0  0  0  0  0  0  0  0
   -1.8414   -1.5395    0.0000 O   0  0  0  0  0  0  0  0  0  0  0  0
   -2.1434   -0.4125    0.0000 C   0  0  0  0  0  0  0  0  0  0  0  0
   -2.8579   -0.8250    0.0000 C   0  0  0  0  0  0  0  0  0  0  0  0
   -3.5724   -0.4125    0.0000 C   0  0  0  0  0  0  0  0  0  0  0  0
   -3.5724    0.4125    0.0000 C   0  0  0  0  0  0  0  0  0  0  0  0
   -2.8579    0.8250    0.0000 C   0  0  0  0  0  0  0  0  0  0  0  0
   -2.1434    0.4125    0.0000 C   0  0  0  0  0  0  0  0  0  0  0  0
   -2.8579    1.6500    0.0000 C   0  0  0  0  0  0  0  0  0  0  0  0
   -2.1434    2.0625    0.0000 C   0  0  0  0  0  0  0  0  0  0  0  0
   -2.1434    2.8875    0.0000 C   0  0  0  0  0  0  0  0  0  0  0  0
   -2.8579    3.3000    0.0000 O   0  0  0  0  0  0  0  0  0  0  0  0
   -1.4289    3.3000    0.0000 N   0  0  0  0  0  0  0  0  0  0  0  0
   -1.4289    4.1250    0.0000 O   0  0  0  0  0  0  0  0  0  0  0  0
  1  2  2  0  0  0  0
  2  3  1  0  0  0  0
  3  4  2  0  0  0  0
  4  5  1  0  0  0  0
  5  6  2  0  0  0  0
  1  6  1  0  0  0  0
  4  7  1  0  0  0  0
  7  8  1  0  0  0  0
  8  9  2  0  0  0  0
  8 10  2  0  0  0  0
  8 11  1  0  0  0  0
 11 12  2  0  0  0  0
 12 13  1  0  0  0  0
 13 14  2  0  0  0  0
 14 15  1  0  0  0  0
 15 16  2  0  0  0  0
 11 16  1  0  0  0  0
 17 15  1  4  0  0  0
 17 18  2  0  0  0  0
 18 19  1  0  0  0  0
 19 20  2  0  0  0  0
 19 21  1  0  0  0  0
 21 22  1  0  0  0  0
M  END
>  <Name>
Belinostat (PXD101)

>  <CAS>
414864-00-9

>  <Formula>
C15H14N2O4S

>  <MolWt>
318.35 

>  <Bioactivity>
Belinostat is a novel hydroxamic acid-type histone deacetylase (HDAC) inhibitor with antineoplastic activity. Belinostat targets HDAC enzymes, thereby inhibiting tumor cell proliferation, inducing apoptosis, promoting cellular differentiation, and inhibiting angiogenesis. This agent may sensitize drug-resistant tumor cells to other antineoplastic agents, possibly through a mechanism involving the down-regulation of thymidylate synthase.

>  <Pathways>
Chromatin/Epigenetic

>  <Target>
HDAC inhibitor

>  <Receptor>
HDACs

>  <Reference>
1. Savickiene J, et al. Anticancer Drugs. 2014 Sep;25(8):938-49. 

$$$$
773092-05-0
  Mrv1561503291623562D          

 35 32  0  0  0  0            999 V2000
    5.3941   -2.3796    0.0000 C   0  0  0  0  0  0  0  0  0  0  0  0
    4.5691   -2.3796    0.0000 C   0  0  0  0  0  0  0  0  0  0  0  0
    4.1566   -3.0941    0.0000 C   0  0  0  0  0  0  0  0  0  0  0  0
    4.1566   -1.6651    0.0000 N   0  0  0  0  0  0  0  0  0  0  0  0
    3.3316   -1.6651    0.0000 C   0  0  0  0  0  0  0  0  0  0  0  0
    2.9191   -0.9506    0.0000 C   0  0  0  0  0  0  0  0  0  0  0  0
    2.0941   -0.9506    0.0000 N   0  0  0  0  0  0  0  0  0  0  0  0
    1.6816   -0.2362    0.0000 C   0  0  0  0  0  0  0  0  0  0  0  0
    2.0941    0.4783    0.0000 O   0  0  0  0  0  0  0  0  0  0  0  0
    0.8566   -0.2362    0.0000 C   0  0  0  0  0  0  0  0  0  0  0  0
    0.3717   -0.9036    0.0000 C   0  0  0  0  0  0  0  0  0  0  0  0
   -0.4129   -0.6487    0.0000 S   0  0  0  0  0  0  0  0  0  0  0  0
   -0.4129    0.1763    0.0000 C   0  0  0  0  0  0  0  0  0  0  0  0
    0.3717    0.4313    0.0000 N   0  0  0  0  0  0  0  0  0  0  0  0
   -1.0804    0.6612    0.0000 N   0  0  0  0  0  0  0  0  0  0  0  0
   -1.8340    0.3257    0.0000 C   0  0  0  0  0  0  0  0  0  0  0  0
   -1.9203   -0.4948    0.0000 O   0  0  0  0  0  0  0  0  0  0  0  0
   -2.5015    0.8106    0.0000 C   0  0  0  0  0  0  0  0  0  0  0  0
   -3.2552    0.4751    0.0000 C   0  0  0  0  0  0  0  0  0  0  0  0
   -3.9226    0.9600    0.0000 C   0  0  0  0  0  0  0  0  0  0  0  0
   -3.8364    1.7805    0.0000 C   0  0  0  0  0  0  0  0  0  0  0  0
   -3.0827    2.1160    0.0000 C   0  0  0  0  0  0  0  0  0  0  0  0
   -2.4152    1.6311    0.0000 C   0  0  0  0  0  0  0  0  0  0  0  0
   -1.6616    1.9667    0.0000 O   0  0  0  0  0  0  0  0  0  0  0  0
   -4.5038    2.2654    0.0000 O   0  0  0  0  0  0  0  0  0  0  0  0
   -5.2575    1.9298    0.0000 C   0  0  0  0  0  0  0  0  0  0  0  0
   -4.6763    0.6244    0.0000 O   0  0  0  0  0  0  0  0  0  0  0  0
   -5.3437    1.1093    0.0000 C   0  0  0  0  0  0  0  0  0  0  0  0
    4.5691   -0.9506    0.0000 C   0  0  0  0  0  0  0  0  0  0  0  0
    4.1566   -0.2362    0.0000 C   0  0  0  0  0  0  0  0  0  0  0  0
    5.3941   -0.9506    0.0000 C   0  0  0  0  0  0  0  0  0  0  0  0
    7.7513    0.0000    0.0000 O   0  0  0  0  0  0  0  0  0  0  0  0
   10.1084    0.0000    0.0000 O   0  0  0  0  0  0  0  0  0  0  0  0
    0.0000   -4.7441    0.0000 O   0  0  0  0  0  0  0  0  0  0  0  0
    2.0036   -4.7441    0.0000 Cl  0  0  0  0  0  0  0  0  0  0  0  0
  1  2  1  0  0  0  0
  2  3  1  0  0  0  0
  2  4  1  0  0  0  0
  4  5  1  0  0  0  0
  5  6  1  0  0  0  0
  6  7  1  0  0  0  0
  7  8  1  0  0  0  0
  8  9  2  0  0  0  0
  8 10  1  0  0  0  0
 10 11  2  0  0  0  0
 11 12  1  0  0  0  0
 12 13  1  0  0  0  0
 13 14  2  0  0  0  0
 10 14  1  0  0  0  0
 13 15  1  0  0  0  0
 15 16  1  0  0  0  0
 16 17  2  0  0  0  0
 16 18  1  0  0  0  0
 18 19  2  0  0  0  0
 19 20  1  0  0  0  0
 20 21  2  0  0  0  0
 21 22  1  0  0  0  0
 22 23  2  0  0  0  0
 18 23  1  0  0  0  0
 23 24  1  0  0  0  0
 21 25  1  0  0  0  0
 25 26  1  0  0  0  0
 20 27  1  0  0  0  0
 27 28  1  0  0  0  0
  4 29  1  0  0  0  0
 29 30  1  0  0  0  0
 29 31  1  0  0  0  0
M  END
>  <Name>
Acotiamide HCl

>  <CAS>
773092-05-0

>  <Formula>
C21H37ClN4O8S

>  <MolWt>
541.06 

>  <Bioactivity>
Acotiamide Hydrochloride is the hydrochloride salt form of acotiamide, a prokinetic agent with gastrointestinal (GI) motility-enhancing activity. Although the exact mechanism by which acotiamide exerts its effect has yet to be fully elucidated, this agent appears to inhibit acetylcholinesterase (AchE), an enzyme responsible for the breakdown of acetylcholine (Ach). Increased Ach concentrations lead to an improvement of gastric emptying and GI motility and eventually to a reduction of dyspepsia symptoms.

>  <Pathways>
Neuroscience

>  <Target>
AChE inhibitor

>  <Receptor>
AChE

>  <Reference>
1. Kawachi M,et al. Eur J Pharmacol. 2011 Sep;666(1-3):218-25. 

$$$$
1030377-33-3
  Mrv1561503291623562D          

 32 36  0  0  0  0            999 V2000
   -4.0040    0.0725    0.0000 C   0  0  0  0  0  0  0  0  0  0  0  0
   -3.2607   -0.2854    0.0000 C   0  0  0  0  0  0  0  0  0  0  0  0
   -2.6157    0.2289    0.0000 C   0  0  0  0  0  0  0  0  0  0  0  0
   -1.8114    0.0454    0.0000 C   0  0  0  0  0  0  0  0  0  0  0  0
   -1.4534   -0.6979    0.0000 N   0  0  0  0  0  0  0  0  0  0  0  0
   -1.8114   -1.4412    0.0000 C   0  0  0  0  0  0  0  0  0  0  0  0
   -2.6157   -1.6248    0.0000 C   0  0  0  0  0  0  0  0  0  0  0  0
   -3.2607   -1.1104    0.0000 N   0  0  0  0  0  0  0  0  0  0  0  0
   -4.0040   -1.4684    0.0000 C   0  0  0  0  0  0  0  0  0  0  0  0
   -4.0657   -2.2911    0.0000 O   0  0  0  0  0  0  0  0  0  0  0  0
   -4.6857   -1.0037    0.0000 C   0  0  0  0  0  0  0  0  0  0  0  0
   -5.4290   -1.3616    0.0000 C   0  0  0  0  0  0  0  0  0  0  0  0
   -6.1106   -0.8969    0.0000 C   0  0  0  0  0  0  0  0  0  0  0  0
   -6.0490   -0.0742    0.0000 C   0  0  0  0  0  0  0  0  0  0  0  0
   -5.3057    0.2838    0.0000 C   0  0  0  0  0  0  0  0  0  0  0  0
   -4.6240   -0.1810    0.0000 C   0  0  0  0  0  0  0  0  0  0  0  0
   -5.2440    1.1065    0.0000 C   0  0  0  0  0  0  0  0  0  0  0  0
   -5.4906   -2.1843    0.0000 N   0  0  0  0  0  0  0  0  0  0  0  0
   -4.8613   -2.7177    0.0000 N   0  0  0  0  0  0  0  0  0  0  0  0
   -5.1741   -3.4811    0.0000 C   0  0  0  0  0  0  0  0  0  0  0  0
   -5.9968   -3.4195    0.0000 C   0  0  0  0  0  0  0  0  0  0  0  0
   -6.1924   -2.6180    0.0000 N   0  0  0  0  0  0  0  0  0  0  0  0
   -0.6284   -0.6979    0.0000 C   0  0  0  0  0  0  0  0  0  0  0  0
   -0.1435   -1.3654    0.0000 N   0  0  0  0  0  0  0  0  0  0  0  0
    0.6411   -1.1104    0.0000 C   0  0  0  0  0  0  0  0  0  0  0  0
    0.6411   -0.2854    0.0000 C   0  0  0  0  0  0  0  0  0  0  0  0
   -0.1435   -0.0305    0.0000 O   0  0  0  0  0  0  0  0  0  0  0  0
    1.3556    0.1271    0.0000 C   0  0  0  0  0  0  0  0  0  0  0  0
    2.0701   -0.2854    0.0000 C   0  0  0  0  0  0  0  0  0  0  0  0
    2.0701   -1.1104    0.0000 C   0  0  0  0  0  0  0  0  0  0  0  0
    1.3556   -1.5229    0.0000 C   0  0  0  0  0  0  0  0  0  0  0  0
    2.7845   -1.5229    0.0000 Cl  0  0  0  0  0  0  0  0  0  0  0  0
  1  2  1  0  0  0  0
  2  3  1  0  0  0  0
  3  4  1  0  0  0  0
  4  5  1  0  0  0  0
  5  6  1  0  0  0  0
  6  7  1  0  0  0  0
  7  8  1  0  0  0  0
  2  8  1  0  0  0  0
  8  9  1  0  0  0  0
  9 10  2  0  0  0  0
  9 11  1  0  0  0  0
 11 12  2  0  0  0  0
 12 13  1  0  0  0  0
 13 14  2  0  0  0  0
 14 15  1  0  0  0  0
 15 16  2  0  0  0  0
 11 16  1  0  0  0  0
 15 17  1  0  0  0  0
 12 18  1  0  0  0  0
 18 19  1  0  0  0  0
 19 20  2  0  0  0  0
 20 21  1  0  0  0  0
 21 22  2  0  0  0  0
 18 22  1  0  0  0  0
  5 23  1  0  0  0  0
 23 24  2  0  0  0  0
 24 25  1  0  0  0  0
 25 26  2  0  0  0  0
 26 27  1  0  0  0  0
 23 27  1  0  0  0  0
 26 28  1  0  0  0  0
 28 29  2  0  0  0  0
 29 30  1  0  0  0  0
 30 31  2  0  0  0  0
 25 31  1  0  0  0  0
 30 32  1  0  0  0  0
M  END
>  <Name>
MK-4305 (Suvorexant)

>  <CAS>
1030377-33-3

>  <Formula>
C23H23ClN6O2

>  <MolWt>
450.92 

>  <Bioactivity>
Suvorexant (MK-4305) is a potent dual OX receptor antagonist with Ki of 0.55 nM and 0.35 nM for OX1 receptor and OX2 receptor, respectively. Phase 3.

>  <Pathways>
GPCR/G Protein

>  <Target>
OX Receptor antagonist

>  <Receptor>
OX1 Receptor, OX2 Receptor

>  <Reference>
1. Cox CD, et al. J Med Chem. 2010, 53(14), 5320-5332.

$$$$
T2562
  Mrv1561503291623562D          

 33 36  0  0  0  0            999 V2000
    4.1801    0.7634    0.0000 C   0  0  0  0  0  0  0  0  0  0  0  0
    4.1801   -0.0616    0.0000 C   0  0  0  0  0  0  0  0  0  0  0  0
    4.8946   -0.4741    0.0000 C   0  0  0  0  0  0  0  0  0  0  0  0
    4.8946   -1.2991    0.0000 C   0  0  0  0  0  0  0  0  0  0  0  0
    4.1801   -1.7116    0.0000 C   0  0  0  0  0  0  0  0  0  0  0  0
    3.4656   -1.2991    0.0000 C   0  0  0  0  0  0  0  0  0  0  0  0
    3.4656   -0.4741    0.0000 C   0  0  0  0  0  0  0  0  0  0  0  0
    4.1801   -2.5366    0.0000 N   0  0  0  0  0  0  0  0  0  0  0  0
    4.8476   -3.0215    0.0000 C   0  0  0  0  0  0  0  0  0  0  0  0
    5.6322   -2.7666    0.0000 O   0  0  0  0  0  0  0  0  0  0  0  0
    4.5926   -3.8062    0.0000 C   0  0  0  0  0  0  0  0  0  0  0  0
    3.7676   -3.8062    0.0000 C   0  0  0  0  0  0  0  0  0  0  0  0
    3.5127   -3.0215    0.0000 N   0  0  0  0  0  0  0  0  0  0  0  0
    3.2827   -4.4736    0.0000 C   0  0  0  0  0  0  0  0  0  0  0  0
    5.0775   -4.4736    0.0000 N   0  0  0  0  0  0  0  0  0  0  0  0
    5.8980   -4.3874    0.0000 N   0  0  0  0  0  0  0  0  0  0  0  0
    6.3829   -5.0548    0.0000 C   0  0  0  0  0  0  0  0  0  0  0  0
    7.2034   -4.9686    0.0000 C   0  0  0  0  0  0  0  0  0  0  0  0
    7.6883   -5.6360    0.0000 C   0  0  0  0  0  0  0  0  0  0  0  0
    7.3528   -6.3897    0.0000 C   0  0  0  0  0  0  0  0  0  0  0  0
    6.5323   -6.4759    0.0000 C   0  0  0  0  0  0  0  0  0  0  0  0
    6.0474   -5.8085    0.0000 C   0  0  0  0  0  0  0  0  0  0  0  0
    5.2269   -5.8947    0.0000 O   0  0  0  0  0  0  0  0  0  0  0  0
    6.1968   -7.2296    0.0000 C   0  0  0  0  0  0  0  0  0  0  0  0
    6.6817   -7.8970    0.0000 C   0  0  0  0  0  0  0  0  0  0  0  0
    6.3461   -8.6507    0.0000 C   0  0  0  0  0  0  0  0  0  0  0  0
    5.5256   -8.7369    0.0000 C   0  0  0  0  0  0  0  0  0  0  0  0
    5.0407   -8.0695    0.0000 C   0  0  0  0  0  0  0  0  0  0  0  0
    5.3763   -7.3158    0.0000 C   0  0  0  0  0  0  0  0  0  0  0  0
    6.8310   -9.3181    0.0000 C   0  0  0  0  0  0  0  0  0  0  0  0
    7.6515   -9.2319    0.0000 O   0  0  0  0  0  0  0  0  0  0  0  0
    6.4955  -10.0718    0.0000 O   0  0  0  0  0  0  0  0  0  0  0  0
    5.6091   -0.0616    0.0000 C   0  0  0  0  0  0  0  0  0  0  0  0
  1  2  1  0  0  0  0
  2  3  2  0  0  0  0
  3  4  1  0  0  0  0
  4  5  2  0  0  0  0
  5  6  1  0  0  0  0
  6  7  2  0  0  0  0
  2  7  1  0  0  0  0
  5  8  1  0  0  0  0
  8  9  1  0  0  0  0
  9 10  2  0  0  0  0
  9 11  1  0  0  0  0
 11 12  2  0  0  0  0
 12 13  1  0  0  0  0
  8 13  1  0  0  0  0
 12 14  1  0  0  0  0
 11 15  1  0  0  0  0
 16 15  1  4  0  0  0
 16 17  2  0  0  0  0
 17 18  1  0  0  0  0
 18 19  2  0  0  0  0
 19 20  1  0  0  0  0
 20 21  2  0  0  0  0
 21 22  1  0  0  0  0
 17 22  1  0  0  0  0
 22 23  2  0  0  0  0
 21 24  1  0  0  0  0
 24 25  2  0  0  0  0
 25 26  1  0  0  0  0
 26 27  2  0  0  0  0
 27 28  1  0  0  0  0
 28 29  2  0  0  0  0
 24 29  1  0  0  0  0
 26 30  1  0  0  0  0
 30 31  2  0  0  0  0
 30 32  1  0  0  0  0
  3 33  1  0  0  0  0
M  END
>  <Name>
Eltrombopag

>  <CAS>
496775-61-2

>  <Formula>
C25H22N4O4

>  <MolWt>
442.47 

>  <Bioactivity>
Eltrombopag is an orally active thrombopoietin receptor agonist with megakaryopoiesis stimulating activity. Eltrombopag binds to and stimulates the platelet thrombopoietin receptor (TPO-R or CD110), a member of the hematopoietin receptor superfamily. Activation of TPO-R leads to the proliferation and differentiation of megakaryocytes, thereby increasing the production of blood platelets.

>  <Pathways>
Angiogenesis

>  <Target>
TpoR agonist

>  <Receptor>
Thrombopoietin receptor

>  <Reference>
1. Kuter DJ. Annu Rev Med. 2009;60:193-206. 

$$$$
312-45-8
  Mrv1561503291623562D          

 32 33  0  0  0  0            999 V2000
    0.2945    1.6500    0.0000 C   0  0  0  0  0  0  0  0  0  0  0  0
    0.2945    0.8250    0.0000 C   0  0  0  0  0  0  0  0  0  0  0  0
   -0.4200    0.4125    0.0000 C   0  0  0  0  0  0  0  0  0  0  0  0
   -1.1344    0.8250    0.0000 C   0  0  0  0  0  0  0  0  0  0  0  0
   -1.1344    1.6500    0.0000 C   0  0  0  0  0  0  0  0  0  0  0  0
   -0.4200    2.0625    0.0000 C   0  0  0  0  0  0  0  0  0  0  0  0
   -0.4200    2.8875    0.0000 C   0  0  0  0  0  0  0  0  0  0  0  0
   -0.7021    3.6627    0.0000 O   0  0  0  0  0  0  0  0  0  0  0  0
   -0.1718    4.2947    0.0000 C   0  0  0  0  0  0  0  0  0  0  0  0
    0.6406    4.1515    0.0000 C   0  0  0  0  0  0  0  0  0  0  0  0
    0.9228    3.3762    0.0000 N   0  3  0  0  0  0  0  0  0  0  0  0
    1.6373    3.7887    0.0000 C   0  0  0  0  0  0  0  0  0  0  0  0
    1.4531    2.7442    0.0000 C   0  0  0  0  0  0  0  0  0  0  0  0
    0.3925    2.7442    0.0000 C   0  0  0  0  0  0  0  0  0  0  0  0
   -1.2324    2.7442    0.0000 O   0  0  0  0  0  0  0  0  0  0  0  0
   -0.4200   -0.4125    0.0000 C   0  0  0  0  0  0  0  0  0  0  0  0
    0.2945   -0.8250    0.0000 C   0  0  0  0  0  0  0  0  0  0  0  0
    0.2945   -1.6500    0.0000 C   0  0  0  0  0  0  0  0  0  0  0  0
   -0.4200   -2.0625    0.0000 C   0  0  0  0  0  0  0  0  0  0  0  0
   -1.1344   -1.6500    0.0000 C   0  0  0  0  0  0  0  0  0  0  0  0
   -1.1344   -0.8250    0.0000 C   0  0  0  0  0  0  0  0  0  0  0  0
   -0.4200   -2.8875    0.0000 C   0  0  0  0  0  0  0  0  0  0  0  0
   -1.2324   -2.7442    0.0000 O   0  0  0  0  0  0  0  0  0  0  0  0
    0.3925   -2.7442    0.0000 C   0  0  0  0  0  0  0  0  0  0  0  0
    0.9228   -3.3762    0.0000 N   0  3  0  0  0  0  0  0  0  0  0  0
    1.4531   -2.7442    0.0000 C   0  0  0  0  0  0  0  0  0  0  0  0
    1.6373   -3.7887    0.0000 C   0  0  0  0  0  0  0  0  0  0  0  0
    0.6406   -4.1515    0.0000 C   0  0  0  0  0  0  0  0  0  0  0  0
   -0.1718   -4.2947    0.0000 C   0  0  0  0  0  0  0  0  0  0  0  0
   -0.7021   -3.6627    0.0000 O   0  0  0  0  0  0  0  0  0  0  0  0
    3.9944    0.0000    0.0000 Br  0  5  0  0  0  0  0  0  0  0  0  0
    0.0000   -5.9447    0.0000 Br  0  5  0  0  0  0  0  0  0  0  0  0
  1  2  2  0  0  0  0
  2  3  1  0  0  0  0
  3  4  2  0  0  0  0
  4  5  1  0  0  0  0
  5  6  2  0  0  0  0
  1  6  1  0  0  0  0
  6  7  1  0  0  0  0
  7  8  1  0  0  0  0
  8  9  1  0  0  0  0
  9 10  1  0  0  0  0
 10 11  1  0  0  0  0
 11 12  1  0  0  0  0
 11 13  1  0  0  0  0
 11 14  1  0  0  0  0
  7 14  1  0  0  0  0
  7 15  1  0  0  0  0
  3 16  1  0  0  0  0
 16 17  2  0  0  0  0
 17 18  1  0  0  0  0
 18 19  2  0  0  0  0
 19 20  1  0  0  0  0
 20 21  2  0  0  0  0
 16 21  1  0  0  0  0
 19 22  1  0  0  0  0
 22 23  1  0  0  0  0
 22 24  1  0  0  0  0
 24 25  1  0  0  0  0
 25 26  1  0  0  0  0
 25 27  1  0  0  0  0
 25 28  1  0  0  0  0
 28 29  1  0  0  0  0
 29 30  1  0  0  0  0
 22 30  1  0  0  0  0
M  CHG  4  11   1  25   1  31  -1  32  -1
M  END
>  <Name>
Hemicholinium-3

>  <CAS>
312-45-8

>  <Formula>
C24H34Br2N2O4

>  <MolWt>
574.35 

>  <Bioactivity>
A potent inhibitor of the high affinity uptake system for CHOLINE. It has less effect on the low affinity uptake system. Since choline is one of the components of ACETYLCHOLINE, treatment with hemicholinium can deplete acetylcholine from cholinergic terminals. Hemicholinium 3 is commonly used as a research tool in animal and in vitro experiments.


>  <Pathways>
Neuroscience

>  <Target>
Cholinergic Activator

>  <Receptor>
ChR

>  <Reference>
1. Soukup O, et al. Toxicol Lett. 2012 Aug 3;212(3):315-9.

$$$$
19774-82-4
  Mrv1561503291623562D          

 33 33  0  0  0  0            999 V2000
    0.4125    0.0000    0.0000 H   0  3  0  0  0  0  0  0  0  0  0  0
    3.8675   -0.3227    0.0000 C   0  0  0  0  0  0  0  0  0  0  0  0
    3.2544   -0.8747    0.0000 C   0  0  0  0  0  0  0  0  0  0  0  0
    2.4697   -0.6198    0.0000 C   0  0  0  0  0  0  0  0  0  0  0  0
    2.2982    0.1872    0.0000 C   0  0  0  0  0  0  0  0  0  0  0  0
    2.9113    0.7392    0.0000 C   0  0  0  0  0  0  0  0  0  0  0  0
    3.6959    0.4843    0.0000 C   0  0  0  0  0  0  0  0  0  0  0  0
    4.1809    1.1517    0.0000 C   0  0  0  0  0  0  0  0  0  0  0  0
    3.6959    1.8191    0.0000 C   0  0  0  0  0  0  0  0  0  0  0  0
    2.9113    1.5642    0.0000 O   0  0  0  0  0  0  0  0  0  0  0  0
    3.9509    2.6038    0.0000 C   0  0  0  0  0  0  0  0  0  0  0  0
    3.3988    3.2169    0.0000 C   0  0  0  0  0  0  0  0  0  0  0  0
    3.6538    4.0015    0.0000 C   0  0  0  0  0  0  0  0  0  0  0  0
    3.1017    4.6146    0.0000 C   0  0  0  0  0  0  0  0  0  0  0  0
    5.0059    1.1517    0.0000 C   0  0  0  0  0  0  0  0  0  0  0  0
    5.4184    1.8662    0.0000 O   0  0  0  0  0  0  0  0  0  0  0  0
    5.4184    0.4372    0.0000 C   0  0  0  0  0  0  0  0  0  0  0  0
    6.2434    0.4372    0.0000 C   0  0  0  0  0  0  0  0  0  0  0  0
    6.6559   -0.2772    0.0000 C   0  0  0  0  0  0  0  0  0  0  0  0
    6.2434   -0.9917    0.0000 C   0  0  0  0  0  0  0  0  0  0  0  0
    6.6559   -1.7062    0.0000 O   0  0  0  0  0  0  0  0  0  0  0  0
    7.4809   -1.7062    0.0000 C   0  0  0  0  0  0  0  0  0  0  0  0
    7.8934   -2.4206    0.0000 C   0  0  0  0  0  0  0  0  0  0  0  0
    8.7184   -2.4206    0.0000 N   0  0  0  0  0  0  0  0  0  0  0  0
    9.1309   -3.1351    0.0000 C   0  0  0  0  0  0  0  0  0  0  0  0
    9.9559   -3.1351    0.0000 C   0  0  0  0  0  0  0  0  0  0  0  0
    9.1309   -1.7062    0.0000 C   0  0  0  0  0  0  0  0  0  0  0  0
    9.9559   -1.7062    0.0000 C   0  0  0  0  0  0  0  0  0  0  0  0
    5.4184   -0.9917    0.0000 C   0  0  0  0  0  0  0  0  0  0  0  0
    5.0059   -0.2772    0.0000 C   0  0  0  0  0  0  0  0  0  0  0  0
    5.0059   -1.7062    0.0000 I   0  0  0  0  0  0  0  0  0  0  0  0
    7.4809   -0.2772    0.0000 I   0  0  0  0  0  0  0  0  0  0  0  0
   -0.4125    0.0000    0.0000 Cl  0  5  0  0  0  0  0  0  0  0  0  0
  2  3  2  0  0  0  0
  3  4  1  0  0  0  0
  4  5  2  0  0  0  0
  5  6  1  0  0  0  0
  6  7  2  0  0  0  0
  2  7  1  0  0  0  0
  7  8  1  0  0  0  0
  8  9  2  0  0  0  0
  9 10  1  0  0  0  0
  6 10  1  0  0  0  0
  9 11  1  0  0  0  0
 11 12  1  0  0  0  0
 12 13  1  0  0  0  0
 13 14  1  0  0  0  0
  8 15  1  0  0  0  0
 15 16  2  0  0  0  0
 15 17  1  0  0  0  0
 17 18  2  0  0  0  0
 18 19  1  0  0  0  0
 19 20  2  0  0  0  0
 20 21  1  0  0  0  0
 21 22  1  0  0  0  0
 22 23  1  0  0  0  0
 23 24  1  0  0  0  0
 24 25  1  0  0  0  0
 25 26  1  0  0  0  0
 24 27  1  0  0  0  0
 27 28  1  0  0  0  0
 20 29  1  0  0  0  0
 29 30  2  0  0  0  0
 17 30  1  0  0  0  0
 29 31  1  0  0  0  0
 19 32  1  0  0  0  0
M  CHG  2   1   1  33  -1
M  END
>  <Name>
Amiodarone HCl

>  <CAS>
19774-82-4

>  <Formula>
C25H29I2NO3.HCl

>  <MolWt>
681.78 

>  <Bioactivity>
An antianginal and class III antiarrhythmic drug. It increases the duration of ventricular and atrial muscle action by inhibiting POTASSIUM CHANNELS and VOLTAGE-GATED SODIUM CHANNELS. There is a resulting decrease in heart rate and in vascular resistance.  

>  <Pathways>
Membrane Transporter/Ion Channel; GPCR/G Protein

>  <Target>
Potassium Channel; Adrenergic Receptor antagonist

>  <Receptor>
Potassium Channel ;?-adrenergic receptor

>  <Reference>
1. Kodama I, et al. Cardiovasc Res,1997, 35(1), 13-29.

$$$$
T2239
  Mrv1561503291623562D          

 33 34  0  0  0  0            999 V2000
    3.5724   -6.1875    0.0000 C   0  0  0  0  0  0  0  0  0  0  0  0
    3.5724   -7.0125    0.0000 C   0  0  0  0  0  0  0  0  0  0  0  0
    4.2398   -7.4974    0.0000 N   0  0  0  0  0  0  0  0  0  0  0  0
    3.9849   -8.2820    0.0000 N   0  0  0  0  0  0  0  0  0  0  0  0
    3.1599   -8.2820    0.0000 C   0  0  0  0  0  0  0  0  0  0  0  0
    2.9049   -7.4974    0.0000 O   0  0  0  0  0  0  0  0  0  0  0  0
    2.6749   -8.9495    0.0000 C   0  0  0  0  0  0  0  0  0  0  0  0
    1.8545   -8.8632    0.0000 O   0  0  0  0  0  0  0  0  0  0  0  0
    3.0105   -9.7032    0.0000 N   0  0  0  0  0  0  0  0  0  0  0  0
    2.5256  -10.3706    0.0000 C   0  0  0  0  0  0  0  0  0  0  0  0
    1.8581   -9.8857    0.0000 C   0  0  0  0  0  0  0  0  0  0  0  0
    3.1930  -10.8555    0.0000 C   0  0  0  0  0  0  0  0  0  0  0  0
    2.0406  -11.0380    0.0000 C   0  0  0  0  0  0  0  0  0  0  0  0
    2.3762  -11.7917    0.0000 N   0  0  0  0  0  0  0  0  0  0  0  0
    1.8913  -12.4592    0.0000 C   0  0  0  0  0  0  0  0  0  0  0  0
    1.0708  -12.3729    0.0000 C   0  0  0  0  0  0  0  0  0  0  0  0
    0.7352  -11.6192    0.0000 C   0  0  0  0  0  0  0  0  0  0  0  0
   -0.0852  -11.5330    0.0000 O   0  0  0  0  0  0  0  0  0  0  0  0
    1.2202  -10.9518    0.0000 N   0  0  0  0  0  0  0  0  0  0  0  0
    0.8846  -10.1981    0.0000 C   0  0  0  0  0  0  0  0  0  0  0  0
    0.5859  -13.0404    0.0000 O   0  5  0  0  0  0  0  0  0  0  0  0
    2.2268  -13.2128    0.0000 C   0  0  0  0  0  0  0  0  0  0  0  0
    3.0473  -13.2991    0.0000 O   0  0  0  0  0  0  0  0  0  0  0  0
    1.7419  -13.8803    0.0000 N   0  0  0  0  0  0  0  0  0  0  0  0
    2.0775  -14.6339    0.0000 C   0  0  0  0  0  0  0  0  0  0  0  0
    1.5925  -15.3014    0.0000 C   0  0  0  0  0  0  0  0  0  0  0  0
    1.9281  -16.0551    0.0000 C   0  0  0  0  0  0  0  0  0  0  0  0
    1.4432  -16.7225    0.0000 C   0  0  0  0  0  0  0  0  0  0  0  0
    0.6227  -16.6363    0.0000 C   0  0  0  0  0  0  0  0  0  0  0  0
    0.2871  -15.8826    0.0000 C   0  0  0  0  0  0  0  0  0  0  0  0
    0.7721  -15.2151    0.0000 C   0  0  0  0  0  0  0  0  0  0  0  0
    0.1378  -17.3037    0.0000 F   0  0  0  0  0  0  0  0  0  0  0  0
    0.1010  -13.7078    0.0000 K   0  3  0  0  0  0  0  0  0  0  0  0
  1  2  1  0  0  0  0
  2  3  2  0  0  0  0
  3  4  1  0  0  0  0
  4  5  2  0  0  0  0
  5  6  1  0  0  0  0
  2  6  1  0  0  0  0
  5  7  1  0  0  0  0
  7  8  2  0  0  0  0
  7  9  1  0  0  0  0
  9 10  1  0  0  0  0
 10 11  1  0  0  0  0
 10 12  1  0  0  0  0
 10 13  1  0  0  0  0
 13 14  2  0  0  0  0
 14 15  1  0  0  0  0
 15 16  2  0  0  0  0
 16 17  1  0  0  0  0
 17 18  2  0  0  0  0
 17 19  1  0  0  0  0
 13 19  1  0  0  0  0
 19 20  1  0  0  0  0
 16 21  1  0  0  0  0
 15 22  1  0  0  0  0
 22 23  2  0  0  0  0
 22 24  1  0  0  0  0
 24 25  1  0  0  0  0
 25 26  1  0  0  0  0
 26 27  2  0  0  0  0
 27 28  1  0  0  0  0
 28 29  2  0  0  0  0
 29 30  1  0  0  0  0
 30 31  2  0  0  0  0
 26 31  1  0  0  0  0
 29 32  1  0  0  0  0
M  CHG  2  21  -1  33   1
M  END
>  <Name>
Raltegravir potassium

>  <CAS>
871038-72-1

>  <Formula>
C20H20FN6O5.K

>  <MolWt>
482.51 

>  <Bioactivity>
Raltegravir potassium salt(MK0518 potassium salt) is a potent integrase (IN) inhibitor, used to treat HIV infection.

>  <Pathways>
Microbiology & Virology;Proteases/Proteasome

>  <Target>
HIV integrase inhibitor

>  <Receptor>
Integrase (IN); HIV

>  <Reference>
1. Hare, S., et al. Proc Natl Acad Sci U S A, 2010. 107(46): p. 20057-62.2. Lewis M.G., et al.  Retrovirology, 2010. 7: p. 21.

$$$$
T2296
  Mrv1561503291623562D          

 34 35  0  0  0  0            999 V2000
    1.0992    2.3481    0.0000 C   0  0  0  0  0  0  0  0  0  0  0  0
    1.0992    1.5231    0.0000 N   0  0  0  0  0  0  0  0  0  0  0  0
    1.8137    1.1106    0.0000 C   0  0  0  0  0  0  0  0  0  0  0  0
    2.5281    1.5231    0.0000 O   0  0  0  0  0  0  0  0  0  0  0  0
    1.8137    0.2856    0.0000 C   0  0  0  0  0  0  0  0  0  0  0  0
    1.0992   -0.1269    0.0000 C   0  0  0  0  0  0  0  0  0  0  0  0
    0.3847    0.2856    0.0000 N   0  0  0  0  0  0  0  0  0  0  0  0
    0.3847    1.1106    0.0000 C   0  0  0  0  0  0  0  0  0  0  0  0
   -0.3298    1.5231    0.0000 O   0  0  0  0  0  0  0  0  0  0  0  0
   -0.3298   -0.1269    0.0000 C   0  0  0  0  0  0  0  0  0  0  0  0
   -1.0442    0.2856    0.0000 C   0  0  0  0  0  0  0  0  0  0  0  0
   -1.7587   -0.1269    0.0000 C   0  0  0  0  0  0  0  0  0  0  0  0
   -2.4732    0.2856    0.0000 C   0  0  0  0  0  0  0  0  0  0  0  0
   -2.4732    1.1106    0.0000 C   0  0  0  0  0  0  0  0  0  0  0  0
   -1.7587    1.5231    0.0000 C   0  0  0  0  0  0  0  0  0  0  0  0
   -1.0442    1.1106    0.0000 C   0  0  0  0  0  0  0  0  0  0  0  0
   -1.7587    2.3481    0.0000 F   0  0  0  0  0  0  0  0  0  0  0  0
   -1.7587   -0.9519    0.0000 C   0  0  0  0  0  0  0  0  0  0  0  0
   -1.7587   -1.7769    0.0000 N   0  0  0  0  0  0  0  0  0  0  0  0
    1.0992   -0.9519    0.0000 N   0  0  0  0  0  0  0  0  0  0  0  0
    1.8137   -1.3644    0.0000 C   0  0  0  0  0  0  0  0  0  0  0  0
    1.8137   -2.1894    0.0000 C   0  0  0  0  0  0  0  0  0  0  0  0
    1.0992   -2.6019    0.0000 C   0  0  0  0  0  0  0  0  0  0  0  0
    0.3847   -2.1894    0.0000 C   0  0  0  0  0  0  0  0  0  0  0  0
    0.3847   -1.3644    0.0000 C   0  0  0  0  0  0  0  0  0  0  0  0
   -0.3298   -2.6019    0.0000 N   0  0  0  0  0  0  0  0  0  0  0  0
    6.4394    0.2063    0.0000 C   0  0  0  0  0  0  0  0  0  0  0  0
    5.7249   -0.2063    0.0000 C   0  0  0  0  0  0  0  0  0  0  0  0
    5.0105    0.2062    0.0000 C   0  0  0  0  0  0  0  0  0  0  0  0
    4.2960   -0.2063    0.0000 O   0  0  0  0  0  0  0  0  0  0  0  0
    5.0105    1.0312    0.0000 O   0  0  0  0  0  0  0  0  0  0  0  0
    7.1539   -0.2062    0.0000 C   0  0  0  0  0  0  0  0  0  0  0  0
    7.8683    0.2063    0.0000 O   0  0  0  0  0  0  0  0  0  0  0  0
    7.1539   -1.0312    0.0000 O   0  0  0  0  0  0  0  0  0  0  0  0
  1  2  1  0  0  0  0
  2  3  1  0  0  0  0
  3  4  2  0  0  0  0
  3  5  1  0  0  0  0
  5  6  2  0  0  0  0
  6  7  1  0  0  0  0
  7  8  1  0  0  0  0
  2  8  1  0  0  0  0
  8  9  2  0  0  0  0
  7 10  1  0  0  0  0
 10 11  1  0  0  0  0
 11 12  2  0  0  0  0
 12 13  1  0  0  0  0
 13 14  2  0  0  0  0
 14 15  1  0  0  0  0
 15 16  2  0  0  0  0
 11 16  1  0  0  0  0
 15 17  1  0  0  0  0
 12 18  1  0  0  0  0
 18 19  3  0  0  0  0
  6 20  1  0  0  0  0
 20 21  1  0  0  0  0
 21 22  1  0  0  0  0
 22 23  1  0  0  0  0
 23 24  1  0  0  0  0
 24 25  1  0  0  0  0
 20 25  1  0  0  0  0
 24 26  1  0  0  0  0
 27 28  1  0  0  0  0
 28 29  1  0  0  0  0
 29 30  2  0  0  0  0
 29 31  1  0  0  0  0
 27 32  1  0  0  0  0
 32 33  2  0  0  0  0
 32 34  1  0  0  0  0
M  END
>  <Name>
SYR472

>  <CAS>
1029877-94-8

>  <Formula>
C22H26FN5O6

>  <MolWt>
475.47 

>  <Bioactivity>
Trelagliptin(SYR-472) is a long acting dipeptidyl peptidase-4 (DPP-4) inhibitor that is being developed for the treatment of type 2 diabetes (T2D).

>  <Pathways>
Proteases/Proteasome

>  <Target>
DPP-4 inhibitor

>  <Receptor>
DPP-4

>  <Reference>
1. McKeage K. Drugs. 2015 Jul;75(10):1161-4.2. Inagaki N, et al. Lancet Diabetes Endocrinol. 2015 Mar;3(3):191-7. 

$$$$
T2586
  Mrv1561503291623562D          

 37 41  0  0  0  0            999 V2000
   -0.7145   -0.4125    0.0000 C   0  0  0  0  0  0  0  0  0  0  0  0
   -0.0000    0.0000    0.0000 O   0  0  0  0  0  0  0  0  0  0  0  0
    0.7145   -0.4125    0.0000 C   0  0  0  0  0  0  0  0  0  0  0  0
    1.4289   -0.0000    0.0000 C   0  0  0  0  0  0  0  0  0  0  0  0
    2.1434   -0.4125    0.0000 C   0  0  0  0  0  0  0  0  0  0  0  0
    2.8579   -0.0000    0.0000 C   0  0  0  0  0  0  0  0  0  0  0  0
    3.5724   -0.4125    0.0000 C   0  0  0  0  0  0  0  0  0  0  0  0
    3.5724   -1.2375    0.0000 C   0  0  0  0  0  0  0  0  0  0  0  0
    2.8579   -1.6500    0.0000 N   0  0  0  0  0  0  0  0  0  0  0  0
    2.1434   -1.2375    0.0000 C   0  0  0  0  0  0  0  0  0  0  0  0
    1.4289   -1.6500    0.0000 C   0  0  0  0  0  0  0  0  0  0  0  0
    0.7145   -1.2375    0.0000 C   0  0  0  0  0  0  0  0  0  0  0  0
   -0.0000   -1.6500    0.0000 O   0  0  0  0  0  0  0  0  0  0  0  0
   -0.0000   -2.4750    0.0000 C   0  0  0  0  0  0  0  0  0  0  0  0
    2.8579    0.8250    0.0000 O   0  0  0  0  0  0  0  0  0  0  0  0
    3.5724    1.2375    0.0000 C   0  0  0  0  0  0  0  0  0  0  0  0
    3.5724    2.0625    0.0000 C   0  0  0  0  0  0  0  0  0  0  0  0
    4.2868    2.4750    0.0000 C   0  0  0  0  0  0  0  0  0  0  0  0
    5.0013    2.0625    0.0000 C   0  0  0  0  0  0  0  0  0  0  0  0
    5.0013    1.2375    0.0000 C   0  0  0  0  0  0  0  0  0  0  0  0
    4.2868    0.8250    0.0000 C   0  0  0  0  0  0  0  0  0  0  0  0
    5.7158    2.4750    0.0000 N   0  0  0  0  0  0  0  0  0  0  0  0
    5.7158    3.3000    0.0000 C   0  0  0  0  0  0  0  0  0  0  0  0
    5.0013    3.7125    0.0000 O   0  0  0  0  0  0  0  0  0  0  0  0
    6.4302    3.7125    0.0000 C   0  0  0  0  0  0  0  0  0  0  0  0
    7.2427    3.8558    0.0000 C   0  0  0  0  0  0  0  0  0  0  0  0
    6.9605    3.0805    0.0000 C   0  0  0  0  0  0  0  0  0  0  0  0
    6.1481    4.4877    0.0000 C   0  0  0  0  0  0  0  0  0  0  0  0
    5.3356    4.6310    0.0000 O   0  0  0  0  0  0  0  0  0  0  0  0
    6.6784    5.1197    0.0000 N   0  0  0  0  0  0  0  0  0  0  0  0
    7.4908    4.9765    0.0000 C   0  0  0  0  0  0  0  0  0  0  0  0
    8.0211    5.6085    0.0000 C   0  0  0  0  0  0  0  0  0  0  0  0
    8.8336    5.4652    0.0000 C   0  0  0  0  0  0  0  0  0  0  0  0
    9.1158    4.6900    0.0000 C   0  0  0  0  0  0  0  0  0  0  0  0
    8.5855    4.0580    0.0000 C   0  0  0  0  0  0  0  0  0  0  0  0
    7.7730    4.2012    0.0000 C   0  0  0  0  0  0  0  0  0  0  0  0
    9.9282    4.5467    0.0000 F   0  0  0  0  0  0  0  0  0  0  0  0
  1  2  1  0  0  0  0
  2  3  1  0  0  0  0
  3  4  2  0  0  0  0
  4  5  1  0  0  0  0
  5  6  2  0  0  0  0
  6  7  1  0  0  0  0
  7  8  2  0  0  0  0
  8  9  1  0  0  0  0
  9 10  2  0  0  0  0
  5 10  1  0  0  0  0
 10 11  1  0  0  0  0
 11 12  2  0  0  0  0
  3 12  1  0  0  0  0
 12 13  1  0  0  0  0
 13 14  1  0  0  0  0
  6 15  1  0  0  0  0
 15 16  1  0  0  0  0
 16 17  2  0  0  0  0
 17 18  1  0  0  0  0
 18 19  2  0  0  0  0
 19 20  1  0  0  0  0
 20 21  2  0  0  0  0
 16 21  1  0  0  0  0
 19 22  1  0  0  0  0
 22 23  1  0  0  0  0
 23 24  2  0  0  0  0
 23 25  1  0  0  0  0
 25 26  1  0  0  0  0
 26 27  1  0  0  0  0
 25 27  1  0  0  0  0
 25 28  1  0  0  0  0
 28 29  2  0  0  0  0
 28 30  1  0  0  0  0
 30 31  1  0  0  0  0
 31 32  2  0  0  0  0
 32 33  1  0  0  0  0
 33 34  2  0  0  0  0
 34 35  1  0  0  0  0
 35 36  2  0  0  0  0
 31 36  1  0  0  0  0
 34 37  1  0  0  0  0
M  END
>  <Name>
Cabozantinib (XL184, BMS-907351)

>  <CAS>
849217-68-1

>  <Formula>
C28H24FN3O5

>  <MolWt>
501.50 

>  <Bioactivity>
Cabozantinib (XL184, BMS-907351) is a potent VEGFR2 inhibitor with IC50 of 0.035 nM and also inhibits c-Met, Ret, Kit, Flt-1/3/4, Tie2, and AXL with IC50 of 1.3 nM, 4 nM, 4.6 nM, 12 nM/11.3 nM/6 nM, 14.3 nM and 7 nM in cell-free assays, respectively.

>  <Pathways>
Tyrosine Kinase/Adaptors

>  <Target>
VEGFR inhibitor

>  <Receptor>
VEGFR1,2,3

>  <Reference>
1. You WK, et al. Cancer Res, 2011, 71(14), 4758-4768.

$$$$
T2305
  Mrv1561503291623562D          

 31 34  0  0  0  0            999 V2000
    3.0173   -0.6204    0.0000 C   0  0  0  0  0  0  0  0  0  0  0  0
    2.3029   -1.0329    0.0000 C   0  0  0  0  0  0  0  0  0  0  0  0
    2.3029   -1.8579    0.0000 C   0  0  0  0  0  0  0  0  0  0  0  0
    2.9703   -2.3429    0.0000 N   0  0  0  0  0  0  0  0  0  0  0  0
    2.7154   -3.1275    0.0000 C   0  0  0  0  0  0  0  0  0  0  0  0
    1.8904   -3.1275    0.0000 C   0  0  0  0  0  0  0  0  0  0  0  0
    1.6354   -2.3429    0.0000 S   0  0  0  0  0  0  0  0  0  0  0  0
    3.2003   -3.7949    0.0000 C   0  0  0  0  0  0  0  0  0  0  0  0
    4.0208   -3.7087    0.0000 C   0  0  0  0  0  0  0  0  0  0  0  0
    4.5057   -4.3761    0.0000 C   0  0  0  0  0  0  0  0  0  0  0  0
    4.1701   -5.1298    0.0000 C   0  0  0  0  0  0  0  0  0  0  0  0
    3.3497   -5.2160    0.0000 C   0  0  0  0  0  0  0  0  0  0  0  0
    2.8647   -4.5486    0.0000 C   0  0  0  0  0  0  0  0  0  0  0  0
    4.6551   -5.7972    0.0000 C   0  0  0  0  0  0  0  0  0  0  0  0
    5.1400   -6.4647    0.0000 N   0  0  0  0  0  0  0  0  0  0  0  0
    1.5884   -0.6204    0.0000 C   0  0  0  0  0  0  0  0  0  0  0  0
    0.8739   -0.2079    0.0000 C   0  0  0  0  0  0  0  0  0  0  0  0
    0.1595   -0.6204    0.0000 N   0  0  0  0  0  0  0  0  0  0  0  0
    0.0732   -1.4409    0.0000 C   0  0  0  0  0  0  0  0  0  0  0  0
   -0.7338   -1.6125    0.0000 N   0  0  0  0  0  0  0  0  0  0  0  0
   -1.1463   -0.8980    0.0000 C   0  0  0  0  0  0  0  0  0  0  0  0
   -0.5942   -0.2849    0.0000 N   0  0  0  0  0  0  0  0  0  0  0  0
    2.0009    0.0940    0.0000 C   0  0  0  0  0  0  0  0  0  0  0  0
    1.5884    0.8085    0.0000 C   0  0  0  0  0  0  0  0  0  0  0  0
    2.0009    1.5230    0.0000 C   0  0  0  0  0  0  0  0  0  0  0  0
    2.8259    1.5230    0.0000 C   0  0  0  0  0  0  0  0  0  0  0  0
    3.2384    0.8085    0.0000 C   0  0  0  0  0  0  0  0  0  0  0  0
    2.8259    0.0940    0.0000 C   0  0  0  0  0  0  0  0  0  0  0  0
    4.0634    0.8085    0.0000 F   0  0  0  0  0  0  0  0  0  0  0  0
    0.7634    0.8085    0.0000 F   0  0  0  0  0  0  0  0  0  0  0  0
    1.1759   -1.3349    0.0000 O   0  0  0  0  0  0  0  0  0  0  0  0
  1  2  1  0  0  0  0
  2  3  1  0  0  0  0
  3  4  2  0  0  0  0
  4  5  1  0  0  0  0
  5  6  2  0  0  0  0
  6  7  1  0  0  0  0
  3  7  1  0  0  0  0
  5  8  1  0  0  0  0
  8  9  2  0  0  0  0
  9 10  1  0  0  0  0
 10 11  2  0  0  0  0
 11 12  1  0  0  0  0
 12 13  2  0  0  0  0
  8 13  1  0  0  0  0
 11 14  1  0  0  0  0
 14 15  3  0  0  0  0
  2 16  1  0  0  0  0
 16 17  1  0  0  0  0
 17 18  1  0  0  0  0
 18 19  1  0  0  0  0
 19 20  2  0  0  0  0
 20 21  1  0  0  0  0
 21 22  2  0  0  0  0
 18 22  1  0  0  0  0
 16 23  1  0  0  0  0
 23 24  2  0  0  0  0
 24 25  1  0  0  0  0
 25 26  2  0  0  0  0
 26 27  1  0  0  0  0
 27 28  2  0  0  0  0
 23 28  1  0  0  0  0
 27 29  1  0  0  0  0
 24 30  1  0  0  0  0
 16 31  1  0  0  0  0
M  END
>  <Name>
Isavuconazole

>  <CAS>
241479-67-4

>  <Formula>
C22H17F2N5OS

>  <MolWt>
437.47 

>  <Bioactivity>
Isavuconazole(BAL-4815; RO-0094815) is the active component of the new azole antifungal agent BAL8557, exhibits MIC(50)s/MIC(90)s ranged from 0.002/0.004 mg/liter for C. albicans to 0.25/0.5 mg/liter for C. glabrata.

>  <Pathways>
Microbiology & Virology 

>  <Target>
Antifungal

>  <Receptor>
antifungal

>  <Reference>
1. Seifert H, et al. Antimicrob Agents Chemother. 2007 May;51(5):1818-21.

$$$$
T2316
  Mrv1561503291623562D          

 27 30  0  0  0  0            999 V2000
   -0.8654   -0.2549    0.0000 C   0  0  0  0  0  0  0  0  0  0  0  0
   -0.0404   -0.2549    0.0000 S   0  0  0  0  0  0  0  0  0  0  0  0
   -0.0404   -1.0799    0.0000 O   0  0  0  0  0  0  0  0  0  0  0  0
   -0.0404    0.5701    0.0000 O   0  0  0  0  0  0  0  0  0  0  0  0
    0.7846   -0.2549    0.0000 N   0  0  0  0  0  0  0  0  0  0  0  0
    1.2695    0.4125    0.0000 C   0  0  0  0  0  0  0  0  0  0  0  0
    2.0542    0.1576    0.0000 C   0  0  0  0  0  0  0  0  0  0  0  0
    2.8388    0.4125    0.0000 C   0  0  0  0  0  0  0  0  0  0  0  0
    3.3237   -0.2549    0.0000 N   0  0  0  0  0  0  0  0  0  0  0  0
    2.8388   -0.9224    0.0000 C   0  0  0  0  0  0  0  0  0  0  0  0
    2.0542   -0.6674    0.0000 C   0  0  0  0  0  0  0  0  0  0  0  0
    1.2695   -0.9224    0.0000 N   0  0  0  0  0  0  0  0  0  0  0  0
    4.1487   -0.2549    0.0000 C   0  0  0  0  0  0  0  0  0  0  0  0
    4.5612    0.4595    0.0000 C   0  0  0  0  0  0  0  0  0  0  0  0
    5.3862    0.4595    0.0000 C   0  0  0  0  0  0  0  0  0  0  0  0
    5.7987   -0.2549    0.0000 C   0  0  0  0  0  0  0  0  0  0  0  0
    5.3862   -0.9694    0.0000 O   0  0  0  0  0  0  0  0  0  0  0  0
    4.5612   -0.9694    0.0000 C   0  0  0  0  0  0  0  0  0  0  0  0
    6.6237   -0.2549    0.0000 C   0  0  0  0  0  0  0  0  0  0  0  0
    7.0362    0.4595    0.0000 C   0  0  0  0  0  0  0  0  0  0  0  0
    7.8612    0.4595    0.0000 C   0  0  0  0  0  0  0  0  0  0  0  0
    8.2737   -0.2549    0.0000 C   0  0  0  0  0  0  0  0  0  0  0  0
    7.8612   -0.9694    0.0000 C   0  0  0  0  0  0  0  0  0  0  0  0
    7.0362   -0.9694    0.0000 C   0  0  0  0  0  0  0  0  0  0  0  0
    8.2737   -1.6839    0.0000 F   0  0  0  0  0  0  0  0  0  0  0  0
    6.6237    1.1740    0.0000 F   0  0  0  0  0  0  0  0  0  0  0  0
    5.7987    1.1740    0.0000 N   0  0  0  0  0  0  0  0  0  0  0  0
  1  2  1  0  0  0  0
  2  3  2  0  0  0  0
  2  4  2  0  0  0  0
  2  5  1  0  0  0  0
  5  6  1  0  0  0  0
  6  7  2  0  0  0  0
  7  8  1  0  0  0  0
  8  9  1  0  0  0  0
  9 10  1  0  0  0  0
 10 11  1  0  0  0  0
  7 11  1  0  0  0  0
 11 12  2  0  0  0  0
  5 12  1  0  0  0  0
  9 13  1  0  0  0  0
 13 14  1  0  0  0  0
 14 15  1  0  0  0  0
 15 16  1  0  0  0  0
 16 17  1  0  0  0  0
 17 18  1  0  0  0  0
 13 18  1  0  0  0  0
 16 19  1  0  0  0  0
 19 20  2  0  0  0  0
 20 21  1  0  0  0  0
 21 22  2  0  0  0  0
 22 23  1  0  0  0  0
 23 24  2  0  0  0  0
 19 24  1  0  0  0  0
 23 25  1  0  0  0  0
 20 26  1  0  0  0  0
 15 27  1  0  0  0  0
M  END
>  <Name>
MK3102

>  <CAS>
1226781-44-7

>  <Formula>
C17H20F2N4O3S

>  <MolWt>
398.43 

>  <Bioactivity>
Omarigliptin(MK-3102) is a potent, selective and long-acting DPP-4 inhibitor with IC50 of 1.6 nM; highly selective over all proteases tested (IC50 > 67 _mu_M).

>  <Pathways>
Proteases/Proteasome

>  <Target>
DPP-4 inhibitor

>  <Receptor>
DPP-4

>  <Reference>
1. Biftu T, et al. J Med Chem. 2014 Apr 24;57(8):3205-12.

$$$$
T2307
  Mrv1561503291623562D          

 30 32  0  0  0  0            999 V2000
   -4.6775   -0.5690    0.0000 C   0  0  0  0  0  0  0  0  0  0  0  0
   -3.9630   -0.9815    0.0000 C   0  0  0  0  0  0  0  0  0  0  0  0
   -3.2485   -1.3940    0.0000 C   0  0  0  0  0  0  0  0  0  0  0  0
   -2.5341   -0.9815    0.0000 C   0  0  0  0  0  0  0  0  0  0  0  0
   -1.8196   -1.3940    0.0000 C   0  0  0  0  0  0  0  0  0  0  0  0
   -1.8196   -2.2190    0.0000 C   0  0  0  0  0  0  0  0  0  0  0  0
   -2.5341   -2.6315    0.0000 C   0  0  0  0  0  0  0  0  0  0  0  0
   -3.2485   -2.2190    0.0000 C   0  0  0  0  0  0  0  0  0  0  0  0
   -1.1051   -0.9815    0.0000 N   0  0  0  0  0  0  0  0  0  0  0  0
   -1.1051   -0.1565    0.0000 C   0  0  0  0  0  0  0  0  0  0  0  0
   -1.8196    0.2560    0.0000 N   0  0  0  0  0  0  0  0  0  0  0  0
   -1.8196    1.0810    0.0000 C   0  0  0  0  0  0  0  0  0  0  0  0
   -1.1051    1.4935    0.0000 N   0  0  0  0  0  0  0  0  0  0  0  0
   -0.3907    1.0810    0.0000 C   0  0  0  0  0  0  0  0  0  0  0  0
    0.3238    1.4935    0.0000 C   0  0  0  0  0  0  0  0  0  0  0  0
    1.0383    1.0810    0.0000 C   0  0  0  0  0  0  0  0  0  0  0  0
    1.0383    0.2560    0.0000 C   0  0  0  0  0  0  0  0  0  0  0  0
    0.3238   -0.1565    0.0000 C   0  0  0  0  0  0  0  0  0  0  0  0
   -0.3907    0.2560    0.0000 C   0  0  0  0  0  0  0  0  0  0  0  0
    1.7528   -0.1565    0.0000 O   0  0  0  0  0  0  0  0  0  0  0  0
    2.1653   -0.8709    0.0000 C   0  0  0  0  0  0  0  0  0  0  0  0
    2.9903   -0.8709    0.0000 C   0  0  0  0  0  0  0  0  0  0  0  0
    3.4028   -0.1565    0.0000 O   0  0  0  0  0  0  0  0  0  0  0  0
    4.1172    0.2560    0.0000 C   0  0  0  0  0  0  0  0  0  0  0  0
    4.1172    1.0810    0.0000 C   0  0  0  0  0  0  0  0  0  0  0  0
    3.4028    1.4935    0.0000 O   0  0  0  0  0  0  0  0  0  0  0  0
    2.9903    2.2080    0.0000 C   0  0  0  0  0  0  0  0  0  0  0  0
    2.1653    2.2080    0.0000 C   0  0  0  0  0  0  0  0  0  0  0  0
    1.7528    1.4935    0.0000 O   0  0  0  0  0  0  0  0  0  0  0  0
    6.1208    0.0000    0.0000 Cl  0  0  0  0  0  0  0  0  0  0  0  0
  1  2  3  0  0  0  0
  2  3  1  0  0  0  0
  3  4  2  0  0  0  0
  4  5  1  0  0  0  0
  5  6  2  0  0  0  0
  6  7  1  0  0  0  0
  7  8  2  0  0  0  0
  3  8  1  0  0  0  0
  5  9  1  0  0  0  0
  9 10  1  0  0  0  0
 10 11  2  0  0  0  0
 11 12  1  0  0  0  0
 12 13  2  0  0  0  0
 13 14  1  0  0  0  0
 14 15  2  0  0  0  0
 15 16  1  0  0  0  0
 16 17  2  0  0  0  0
 17 18  1  0  0  0  0
 18 19  2  0  0  0  0
 14 19  1  0  0  0  0
 10 19  1  0  0  0  0
 17 20  1  0  0  0  0
 20 21  1  0  0  0  0
 21 22  1  0  0  0  0
 22 23  1  0  0  0  0
 23 24  1  0  0  0  0
 24 25  1  0  0  0  0
 25 26  1  0  0  0  0
 26 27  1  0  0  0  0
 27 28  1  0  0  0  0
 28 29  1  0  0  0  0
 16 29  1  0  0  0  0
M  END
>  <Name>
Icotinib

>  <CAS>
1204313-51-8

>  <Formula>
C22H22ClN3O4

>  <MolWt>
427.88 

>  <Bioactivity>
Icotinib Hcl(BPI-2009H) is a potent and specific epidermal growth factor receptor (EGFR) tyrosine kinase inhibitor (TKI) with an IC(50) of 5 nM, including it's mutants of EGFR(L858R), EGFR(L861Q), EGFR(T790M) and EGFR(T790M, L858R).

>  <Pathways>
Tyrosine Kinase/Adaptors

>  <Target>
EGFR inhibitor

>  <Receptor>
EGFR and EGFR mutants

>  <Reference>
1. Tan F, et al. Lung Cancer. 2012 May;76(2):177-82.

$$$$
T1747
  Mrv1561503291623562D          

 27 30  0  0  0  0            999 V2000
    0.7145   -2.8875    0.0000 C   0  0  0  0  0  0  0  0  0  0  0  0
    0.7145   -3.7125    0.0000 N   0  0  0  0  0  0  0  0  0  0  0  0
    1.3819   -4.1974    0.0000 N   0  0  0  0  0  0  0  0  0  0  0  0
    1.1270   -4.9820    0.0000 C   0  0  0  0  0  0  0  0  0  0  0  0
    0.3020   -4.9820    0.0000 N   0  0  0  0  0  0  0  0  0  0  0  0
    0.0470   -4.1974    0.0000 N   0  0  0  0  0  0  0  0  0  0  0  0
    1.6119   -5.6495    0.0000 C   0  0  0  0  0  0  0  0  0  0  0  0
    2.4324   -5.5632    0.0000 N   0  0  0  0  0  0  0  0  0  0  0  0
    2.9173   -6.2307    0.0000 C   0  0  0  0  0  0  0  0  0  0  0  0
    2.5817   -6.9844    0.0000 C   0  0  0  0  0  0  0  0  0  0  0  0
    1.7613   -7.0706    0.0000 C   0  0  0  0  0  0  0  0  0  0  0  0
    1.2763   -6.4032    0.0000 C   0  0  0  0  0  0  0  0  0  0  0  0
    3.0667   -7.6518    0.0000 C   0  0  0  0  0  0  0  0  0  0  0  0
    3.8871   -7.5656    0.0000 C   0  0  0  0  0  0  0  0  0  0  0  0
    4.3721   -8.2330    0.0000 C   0  0  0  0  0  0  0  0  0  0  0  0
    4.0365   -8.9867    0.0000 C   0  0  0  0  0  0  0  0  0  0  0  0
    3.2160   -9.0729    0.0000 C   0  0  0  0  0  0  0  0  0  0  0  0
    2.7311   -8.4055    0.0000 C   0  0  0  0  0  0  0  0  0  0  0  0
    4.5214   -9.6541    0.0000 N   0  0  0  0  0  0  0  0  0  0  0  0
    5.3464   -9.6541    0.0000 C   0  0  0  0  0  0  0  0  0  0  0  0
    5.6014  -10.4387    0.0000 C   0  0  0  0  0  0  0  0  0  0  0  0
    4.9339  -10.9237    0.0000 O   0  0  0  0  0  0  0  0  0  0  0  0
    4.2665  -10.4387    0.0000 C   0  0  0  0  0  0  0  0  0  0  0  0
    3.4819  -10.6937    0.0000 O   0  0  0  0  0  0  0  0  0  0  0  0
    6.3860  -10.6937    0.0000 C   0  0  0  0  0  0  0  0  0  0  0  0
    6.9991  -10.1416    0.0000 O   0  0  0  0  0  0  0  0  0  0  0  0
    4.2227   -6.8119    0.0000 F   0  0  0  0  0  0  0  0  0  0  0  0
  1  2  1  0  0  0  0
  2  3  1  0  0  0  0
  3  4  2  0  0  0  0
  4  5  1  0  0  0  0
  5  6  2  0  0  0  0
  2  6  1  0  0  0  0
  4  7  1  0  0  0  0
  7  8  2  0  0  0  0
  8  9  1  0  0  0  0
  9 10  2  0  0  0  0
 10 11  1  0  0  0  0
 11 12  2  0  0  0  0
  7 12  1  0  0  0  0
 10 13  1  0  0  0  0
 13 14  2  0  0  0  0
 14 15  1  0  0  0  0
 15 16  2  0  0  0  0
 16 17  1  0  0  0  0
 17 18  2  0  0  0  0
 13 18  1  0  0  0  0
 16 19  1  0  0  0  0
 19 20  1  0  0  0  0
 20 21  1  0  0  0  0
 21 22  1  0  0  0  0
 22 23  1  0  0  0  0
 19 23  1  0  0  0  0
 23 24  2  0  0  0  0
 21 25  1  0  0  0  0
 25 26  1  0  0  0  0
 14 27  1  0  0  0  0
M  END
>  <Name>
Torezolid

>  <CAS>
856866-72-3

>  <Formula>
C17H15FN6O3

>  <MolWt>
370.34 

>  <Bioactivity>
Torezolid (TR-701; tedizolid) is a novel oxazolidinone for gram-positive infections.

>  <Pathways>
Metabolism

>  <Target>
MAO inhibitor

>  <Receptor>
MAO-A/B

>  <Reference>
1. Choi S, et al. Antimicrob Agents Chemother. 2012 Jun 19.

$$$$

  Mrv1561503291623562D          

  0  0  0  0  0  0            999 V2000
M  END
>  <Name>
Ilaprazole sodium

>  <CAS>
172152-50-0

>  <Formula>
C19H18N4O2S

>  <MolWt>
366.44 

>  <Bioactivity>
Ilaprazole is a substituted benzimidazole prodrug with selective and irreversible proton pump inhibitor activity. A weak base, ilaprazole accumulates in the acidic environment of the secretory canaliculus of the gastric parietal cell where it is converted to an active sulfenamide form that binds to cysteine sulfhydryl groups on the luminal aspect of the proton pump hydrogen-potassium adenosine triphosphatase (H+/K+ ATPase), thereby inhibiting the pump's activity and the parietal cell secretion of H+ ions into the gastric lumen, the final step in gastric acid production.

>  <Pathways>
Membrane Transporter/Ion Channel

>  <Target>
Proton Pump inhibitor

>  <Receptor>
proton pump 

>  <Reference>
1. Seo KA, et al. Xenobiotica. 2012 Mar;42(3):278-84.

$$$$
686347-12-6
  Mrv1561503291623562D          

 36 39  0  0  0  0            999 V2000
   -0.5647    3.7458    0.0000 C   0  0  0  0  0  0  0  0  0  0  0  0
   -0.0344    3.1138    0.0000 C   0  0  0  0  0  0  0  0  0  0  0  0
    0.7781    3.2571    0.0000 N   0  0  0  0  0  0  0  0  0  0  0  0
    1.3084    2.6251    0.0000 C   0  0  0  0  0  0  0  0  0  0  0  0
    2.0228    2.2126    0.0000 C   0  0  0  0  0  0  0  0  0  0  0  0
    2.0228    1.3876    0.0000 C   0  0  0  0  0  0  0  0  0  0  0  0
    1.3084    0.9751    0.0000 N   0  0  0  0  0  0  0  0  0  0  0  0
    0.5939    1.3876    0.0000 C   0  0  0  0  0  0  0  0  0  0  0  0
    0.5939    2.2126    0.0000 C   0  0  0  0  0  0  0  0  0  0  0  0
    1.3084    0.1501    0.0000 C   0  0  0  0  0  0  0  0  0  0  0  0
    2.0228   -0.2624    0.0000 N   0  0  0  0  0  0  0  0  0  0  0  0
    2.0228   -1.0874    0.0000 C   0  0  0  0  0  0  0  0  0  0  0  0
    1.3084   -1.4999    0.0000 N   0  0  0  0  0  0  0  0  0  0  0  0
    0.5939   -1.0874    0.0000 C   0  0  0  0  0  0  0  0  0  0  0  0
    0.5939   -0.2624    0.0000 C   0  0  0  0  0  0  0  0  0  0  0  0
   -0.1907   -0.0075    0.0000 N   0  0  0  0  0  0  0  0  0  0  0  0
   -0.6756   -0.6749    0.0000 C   0  0  0  0  0  0  0  0  0  0  0  0
   -0.1907   -1.3424    0.0000 N   0  0  0  0  0  0  0  0  0  0  0  0
   -0.4457   -2.1270    0.0000 C   0  0  0  0  0  0  0  0  0  0  0  0
    0.1064   -2.7401    0.0000 C   0  0  0  0  0  0  0  0  0  0  0  0
   -0.1486   -3.5247    0.0000 C   0  0  0  0  0  0  0  0  0  0  0  0
   -0.9555   -3.6962    0.0000 C   0  0  0  0  0  0  0  0  0  0  0  0
   -1.5076   -3.0831    0.0000 C   0  0  0  0  0  0  0  0  0  0  0  0
   -1.2526   -2.2985    0.0000 C   0  0  0  0  0  0  0  0  0  0  0  0
   -1.2105   -4.4808    0.0000 Cl  0  0  0  0  0  0  0  0  0  0  0  0
   -1.5006   -0.6749    0.0000 C   0  0  0  0  0  0  0  0  0  0  0  0
   -1.9131   -1.3894    0.0000 C   0  0  0  0  0  0  0  0  0  0  0  0
   -2.7381   -1.3894    0.0000 C   0  0  0  0  0  0  0  0  0  0  0  0
   -3.1506   -0.6749    0.0000 C   0  0  0  0  0  0  0  0  0  0  0  0
   -2.7381    0.0395    0.0000 C   0  0  0  0  0  0  0  0  0  0  0  0
   -1.9131    0.0395    0.0000 C   0  0  0  0  0  0  0  0  0  0  0  0
   -1.5006    0.7540    0.0000 Cl  0  0  0  0  0  0  0  0  0  0  0  0
    1.8387    3.2571    0.0000 C   0  0  0  0  0  0  0  0  0  0  0  0
    2.6511    3.1138    0.0000 O   0  0  0  0  0  0  0  0  0  0  0  0
    1.5565    4.0323    0.0000 N   0  0  0  0  0  0  0  0  0  0  0  0
    4.6547    0.0000    0.0000 Cl  0  0  0  0  0  0  0  0  0  0  0  0
  1  2  1  0  0  0  0
  2  3  1  0  0  0  0
  3  4  1  0  0  0  0
  4  5  1  0  0  0  0
  5  6  1  0  0  0  0
  6  7  1  0  0  0  0
  7  8  1  0  0  0  0
  8  9  1  0  0  0  0
  4  9  1  0  0  0  0
  7 10  1  0  0  0  0
 10 11  2  0  0  0  0
 11 12  1  0  0  0  0
 12 13  2  0  0  0  0
 13 14  1  0  0  0  0
 14 15  2  0  0  0  0
 10 15  1  0  0  0  0
 15 16  1  0  0  0  0
 16 17  2  0  0  0  0
 17 18  1  0  0  0  0
 14 18  1  0  0  0  0
 18 19  1  0  0  0  0
 19 20  2  0  0  0  0
 20 21  1  0  0  0  0
 21 22  2  0  0  0  0
 22 23  1  0  0  0  0
 23 24  2  0  0  0  0
 19 24  1  0  0  0  0
 22 25  1  0  0  0  0
 17 26  1  0  0  0  0
 26 27  2  0  0  0  0
 27 28  1  0  0  0  0
 28 29  2  0  0  0  0
 29 30  1  0  0  0  0
 30 31  2  0  0  0  0
 26 31  1  0  0  0  0
 31 32  1  0  0  0  0
  4 33  1  0  0  0  0
 33 34  2  0  0  0  0
 33 35  1  0  0  0  0
M  END
>  <Name>
Otenabant (CP-945598) HCl

>  <CAS>
686347-12-6

>  <Formula>
C25H26Cl3N7O

>  <MolWt>
546.88 

>  <Bioactivity>
Otenabant Hcl (CP-945598) is a recently discovered selective, high affinity, competitive CB1 receptor antagonist with Ki of 0.7 nM.

>  <Pathways>
GPCR/G Protein

>  <Target>
Cannabinoid Receptor antagonist

>  <Receptor>
CB1 receptor

>  <Reference>
1. John R. Hadcock, et al. Biochemical and Biophysical Research Communications,2010; 394;366-371.

$$$$
380917-97-5
  Mrv1561503291623562D          

 27 30  0  0  0  0            999 V2000
   -1.4289   -4.1250    0.0000 C   0  0  0  0  0  0  0  0  0  0  0  0
   -2.1434   -3.7125    0.0000 C   0  0  0  0  0  0  0  0  0  0  0  0
   -2.1434   -2.8875    0.0000 C   0  0  0  0  0  0  0  0  0  0  0  0
   -1.4289   -2.4750    0.0000 C   0  0  0  0  0  0  0  0  0  0  0  0
   -0.7145   -2.8875    0.0000 C   0  0  0  0  0  0  0  0  0  0  0  0
   -0.7145   -3.7125    0.0000 C   0  0  0  0  0  0  0  0  0  0  0  0
   -1.4289   -1.6500    0.0000 N   0  0  0  0  0  0  0  0  0  0  0  0
   -2.1434   -1.2375    0.0000 C   0  0  0  0  0  0  0  0  0  0  0  0
   -2.1434   -0.4125    0.0000 C   0  0  0  0  0  0  0  0  0  0  0  0
   -1.4289    0.0000    0.0000 C   0  0  0  0  0  0  0  0  0  0  0  0
   -0.7145   -0.4125    0.0000 C   0  0  0  0  0  0  0  0  0  0  0  0
   -0.7145   -1.2375    0.0000 C   0  0  0  0  0  0  0  0  0  0  0  0
    0.0000   -1.6500    0.0000 O   0  0  0  0  0  0  0  0  0  0  0  0
    0.0000   -0.0000    0.0000 C   0  0  0  0  0  0  0  0  0  0  0  0
    0.0000    0.8250    0.0000 C   0  0  0  0  0  0  0  0  0  0  0  0
    0.7145    1.2375    0.0000 C   0  0  0  0  0  0  0  0  0  0  0  0
    1.4289    0.8250    0.0000 C   0  0  0  0  0  0  0  0  0  0  0  0
    1.4289   -0.0000    0.0000 C   0  0  0  0  0  0  0  0  0  0  0  0
    0.7145   -0.4125    0.0000 C   0  0  0  0  0  0  0  0  0  0  0  0
    0.7145   -1.2375    0.0000 C   0  0  0  0  0  0  0  0  0  0  0  0
    0.7145   -2.0625    0.0000 N   0  0  0  0  0  0  0  0  0  0  0  0
   -2.8579    0.0000    0.0000 C   0  0  0  0  0  0  0  0  0  0  0  0
   -3.5724   -0.4125    0.0000 C   0  0  0  0  0  0  0  0  0  0  0  0
   -4.2868    0.0000    0.0000 C   0  0  0  0  0  0  0  0  0  0  0  0
   -4.2868    0.8250    0.0000 C   0  0  0  0  0  0  0  0  0  0  0  0
   -3.5724    1.2375    0.0000 C   0  0  0  0  0  0  0  0  0  0  0  0
   -2.8579    0.8250    0.0000 N   0  0  0  0  0  0  0  0  0  0  0  0
  1  2  2  0  0  0  0
  2  3  1  0  0  0  0
  3  4  2  0  0  0  0
  4  5  1  0  0  0  0
  5  6  2  0  0  0  0
  1  6  1  0  0  0  0
  4  7  1  0  0  0  0
  7  8  1  0  0  0  0
  8  9  2  0  0  0  0
  9 10  1  0  0  0  0
 10 11  2  0  0  0  0
 11 12  1  0  0  0  0
  7 12  1  0  0  0  0
 12 13  2  0  0  0  0
 11 14  1  0  0  0  0
 14 15  2  0  0  0  0
 15 16  1  0  0  0  0
 16 17  2  0  0  0  0
 17 18  1  0  0  0  0
 18 19  2  0  0  0  0
 14 19  1  0  0  0  0
 19 20  1  0  0  0  0
 20 21  3  0  0  0  0
  9 22  1  0  0  0  0
 22 23  2  0  0  0  0
 23 24  1  0  0  0  0
 24 25  2  0  0  0  0
 25 26  1  0  0  0  0
 26 27  2  0  0  0  0
 22 27  1  0  0  0  0
M  END
>  <Name>
PeraMpanel

>  <CAS>
380917-97-5

>  <Formula>
C23H15N3O

>  <MolWt>
349.38 

>  <Bioactivity>
Perampanel(E2007; ER 155055-90) is a selective noncompetitive AMPA-type glutamate receptor antagonist which has demonstrated anticonvulsant activity in experimental seizure models and antiepileptic activity in clinical trials.

>  <Pathways>
Neuroscience

>  <Target>
AMPAR modulator

>  <Receptor>
AMPAR

>  <Reference>
1. Shvarts V, et al. Expert Rev Neurother. 2013 Feb;13(2):131-4.

$$$$
148849-67-6
  Mrv1561503291623562D          

 36 37  0  0  1  0            999 V2000
   -2.9439   -1.1543    0.0000 C   0  0  0  0  0  0  0  0  0  0  0  0
   -3.1574   -0.3575    0.0000 C   0  0  0  0  0  0  0  0  0  0  0  0
   -3.9543   -0.5710    0.0000 C   0  0  0  0  0  0  0  0  0  0  0  0
   -3.7408   -1.3679    0.0000 C   0  0  0  0  0  0  0  0  0  0  0  0
   -4.5377    0.0124    0.0000 C   0  0  0  0  0  0  0  0  0  0  0  0
   -4.3242    0.8093    0.0000 C   0  0  0  0  0  0  0  0  0  0  0  0
   -4.9075    1.3926    0.0000 O   0  0  0  0  0  0  0  0  0  0  0  0
   -4.6940    2.1895    0.0000 C   0  0  0  0  0  0  0  0  0  0  0  0
   -3.5273    1.0228    0.0000 C   0  0  0  0  0  0  0  0  0  0  0  0
   -2.9439    0.4394    0.0000 C   0  0  0  0  0  0  0  0  0  0  0  0
   -3.3137    1.8197    0.0000 O   0  0  0  0  0  0  0  0  0  0  0  0
   -2.5169    2.0332    0.0000 C   0  0  0  0  0  0  0  0  0  0  0  0
   -2.2294   -1.5668    0.0000 C   0  0  0  0  0  0  0  0  0  0  0  0
   -1.5150   -1.1543    0.0000 N   0  0  0  0  0  0  0  0  0  0  0  0
   -0.8005   -1.5668    0.0000 C   0  0  0  0  0  0  0  0  0  0  0  0
   -0.0860   -1.1543    0.0000 C   0  0  0  0  0  0  0  0  0  0  0  0
    0.6284   -1.5668    0.0000 C   0  0  0  0  0  0  0  0  0  0  0  0
    1.3429   -1.1543    0.0000 N   0  0  0  0  0  0  0  0  0  0  0  0
    1.2813   -0.3317    0.0000 C   0  0  0  0  0  0  0  0  0  0  0  0
    0.5133   -0.0302    0.0000 O   0  0  0  0  0  0  0  0  0  0  0  0
    1.8860    0.2295    0.0000 C   0  0  0  0  0  0  0  0  0  0  0  0
    2.7018    0.1065    0.0000 C   0  0  0  0  0  0  0  0  0  0  0  0
    3.1143   -0.6079    0.0000 C   0  0  0  0  0  0  0  0  0  0  0  0
    3.9393   -0.6079    0.0000 C   0  0  0  0  0  0  0  0  0  0  0  0
    4.3518    0.1065    0.0000 C   0  0  0  0  0  0  0  0  0  0  0  0
    5.1768    0.1065    0.0000 O   0  0  0  0  0  0  0  0  0  0  0  0
    5.5893    0.8210    0.0000 C   0  0  0  0  0  0  0  0  0  0  0  0
    3.9393    0.8210    0.0000 C   0  0  0  0  0  0  0  0  0  0  0  0
    3.1143    0.8210    0.0000 C   0  0  0  0  0  0  0  0  0  0  0  0
    4.3518    1.5355    0.0000 O   0  0  0  0  0  0  0  0  0  0  0  0
    3.9393    2.2499    0.0000 C   0  0  0  0  0  0  0  0  0  0  0  0
    2.8129   -1.3759    0.0000 C   0  0  0  0  0  0  0  0  0  0  0  0
    2.0246   -1.6191    0.0000 C   0  0  0  0  0  0  0  0  0  0  0  0
   -1.5150   -0.3293    0.0000 C   0  0  0  0  0  0  0  0  0  0  0  0
    8.7715    0.0000    0.0000 H   0  3  0  0  0  0  0  0  0  0  0  0
    7.9465    0.0000    0.0000 Cl  0  5  0  0  0  0  0  0  0  0  0  0
  1  2  1  0  0  0  0
  2  3  2  0  0  0  0
  3  4  1  0  0  0  0
  1  4  1  0  0  0  0
  3  5  1  0  0  0  0
  5  6  2  0  0  0  0
  6  7  1  0  0  0  0
  7  8  1  0  0  0  0
  6  9  1  0  0  0  0
  9 10  2  0  0  0  0
  2 10  1  0  0  0  0
  9 11  1  0  0  0  0
 11 12  1  0  0  0  0
  1 13  1  0  0  0  0
 13 14  1  0  0  0  0
 14 15  1  0  0  0  0
 15 16  1  0  0  0  0
 16 17  1  0  0  0  0
 17 18  1  0  0  0  0
 18 19  1  0  0  0  0
 19 20  2  0  0  0  0
 19 21  1  0  0  0  0
 21 22  1  0  0  0  0
 22 23  2  0  0  0  0
 23 24  1  0  0  0  0
 24 25  2  0  0  0  0
 25 26  1  0  0  0  0
 26 27  1  0  0  0  0
 25 28  1  0  0  0  0
 28 29  2  0  0  0  0
 22 29  1  0  0  0  0
 28 30  1  0  0  0  0
 30 31  1  0  0  0  0
 23 32  1  0  0  0  0
 32 33  1  0  0  0  0
 18 33  1  0  0  0  0
 14 34  1  0  0  0  0
M  CHG  2  35   1  36  -1
M  END
>  <Name>
Ivabradine HCl

>  <CAS>
148849-67-6

>  <Formula>
C27H37ClN2O5

>  <MolWt>
505.05 

>  <Bioactivity>
Ivabradine hydrochloride, a new If inhibitor with IC 50 of 2.9 ?M, which is a pure heart rate lowering agent.

>  <Pathways>
GPCR/G Protein

>  <Target>
Adrenergic Receptor antagonist

>  <Receptor>
Adrenergic Receptor

>  <Reference>
1. Fang Y, et al. J Cardiovasc Pharmacol, 2012. 59(3): p. 260-7.

$$$$
T1773
  Mrv1561503291623562D          

 50 51  0  0  0  0            999 V2000
   -3.5303   -3.0027    0.0000 C   0  0  0  0  0  0  0  0  0  0  0  0
   -3.5303   -2.1777    0.0000 N   0  0  0  0  0  0  0  0  0  0  0  0
   -4.2448   -1.7652    0.0000 C   0  0  0  0  0  0  0  0  0  0  0  0
   -2.8159   -1.7652    0.0000 C   0  0  0  0  0  0  0  0  0  0  0  0
   -2.8159   -0.9402    0.0000 C   0  0  0  0  0  0  0  0  0  0  0  0
   -2.1014   -0.5277    0.0000 C   0  0  0  0  0  0  0  0  0  0  0  0
   -2.1014    0.2973    0.0000 C   0  0  0  0  0  0  0  0  0  0  0  0
   -2.8159    0.7098    0.0000 O   0  0  0  0  0  0  0  0  0  0  0  0
   -1.3869    0.7098    0.0000 N   0  0  0  0  0  0  0  0  0  0  0  0
   -0.6724    0.2973    0.0000 C   0  0  0  0  0  0  0  0  0  0  0  0
   -0.6724   -0.5277    0.0000 C   0  0  0  0  0  0  0  0  0  0  0  0
    0.0420   -0.9402    0.0000 C   0  0  0  0  0  0  0  0  0  0  0  0
    0.7565   -0.5277    0.0000 C   0  0  0  0  0  0  0  0  0  0  0  0
    0.7565    0.2973    0.0000 C   0  0  0  0  0  0  0  0  0  0  0  0
    0.0420    0.7098    0.0000 C   0  0  0  0  0  0  0  0  0  0  0  0
    1.4710    0.7098    0.0000 C   0  0  0  0  0  0  0  0  0  0  0  0
    2.1854    0.2973    0.0000 N   0  0  0  0  0  0  0  0  0  0  0  0
    2.1854   -0.5277    0.0000 C   0  0  0  0  0  0  0  0  0  0  0  0
    1.4710   -0.9402    0.0000 N   0  0  0  0  0  0  0  0  0  0  0  0
    1.4710    1.5348    0.0000 N   0  0  0  0  0  0  0  0  0  0  0  0
    2.1854    1.9473    0.0000 C   0  0  0  0  0  0  0  0  0  0  0  0
    2.1854    2.7723    0.0000 C   0  0  0  0  0  0  0  0  0  0  0  0
    2.8999    3.1848    0.0000 C   0  0  0  0  0  0  0  0  0  0  0  0
    3.6144    2.7723    0.0000 C   0  0  0  0  0  0  0  0  0  0  0  0
    3.6144    1.9473    0.0000 C   0  0  0  0  0  0  0  0  0  0  0  0
    2.8999    1.5348    0.0000 C   0  0  0  0  0  0  0  0  0  0  0  0
    4.3289    3.1848    0.0000 F   0  0  0  0  0  0  0  0  0  0  0  0
    2.8999    4.0098    0.0000 Cl  0  0  0  0  0  0  0  0  0  0  0  0
   -1.3869   -0.9402    0.0000 O   0  0  0  0  0  0  0  0  0  0  0  0
   -1.3869   -1.7652    0.0000 C   0  0  0  0  0  0  0  0  0  0  0  0
   -0.7195   -2.2501    0.0000 C   0  0  0  0  0  0  0  0  0  0  0  0
   -0.9744   -3.0347    0.0000 C   0  0  0  0  0  0  0  0  0  0  0  0
   -1.7994   -3.0347    0.0000 O   0  0  0  0  0  0  0  0  0  0  0  0
   -2.0544   -2.2501    0.0000 C   0  0  0  0  0  0  0  0  0  0  0  0
    8.1592    0.0000    0.0000 C   0  0  0  0  0  0  0  0  0  0  0  0
    7.3342    0.0000    0.0000 C   0  0  0  0  0  0  0  0  0  0  0  0
    6.9217   -0.7145    0.0000 C   0  0  0  0  0  0  0  0  0  0  0  0
    6.0967   -0.7145    0.0000 O   0  0  0  0  0  0  0  0  0  0  0  0
    7.3342   -1.4289    0.0000 O   0  0  0  0  0  0  0  0  0  0  0  0
    8.5717    0.7145    0.0000 C   0  0  0  0  0  0  0  0  0  0  0  0
    8.1592    1.4289    0.0000 O   0  0  0  0  0  0  0  0  0  0  0  0
    9.3967    0.7145    0.0000 O   0  0  0  0  0  0  0  0  0  0  0  0
    0.4125   -6.1137    0.0000 C   0  0  0  0  0  0  0  0  0  0  0  0
   -0.4125   -6.1137    0.0000 C   0  0  0  0  0  0  0  0  0  0  0  0
   -0.8250   -6.8281    0.0000 C   0  0  0  0  0  0  0  0  0  0  0  0
   -1.6500   -6.8281    0.0000 O   0  0  0  0  0  0  0  0  0  0  0  0
   -0.4125   -7.5426    0.0000 O   0  0  0  0  0  0  0  0  0  0  0  0
    0.8250   -5.3992    0.0000 C   0  0  0  0  0  0  0  0  0  0  0  0
    0.4125   -4.6847    0.0000 O   0  0  0  0  0  0  0  0  0  0  0  0
    1.6500   -5.3992    0.0000 O   0  0  0  0  0  0  0  0  0  0  0  0
  1  2  1  0  0  0  0
  2  3  1  0  0  0  0
  2  4  1  0  0  0  0
  5  4  1  4  0  0  0
  5  6  2  0  0  0  0
  6  7  1  0  0  0  0
  7  8  2  0  0  0  0
  7  9  1  0  0  0  0
  9 10  1  0  0  0  0
 10 11  2  0  0  0  0
 11 12  1  0  0  0  0
 12 13  2  0  0  0  0
 13 14  1  0  0  0  0
 14 15  2  0  0  0  0
 10 15  1  0  0  0  0
 14 16  1  0  0  0  0
 16 17  2  0  0  0  0
 17 18  1  0  0  0  0
 18 19  2  0  0  0  0
 13 19  1  0  0  0  0
 16 20  1  0  0  0  0
 20 21  1  0  0  0  0
 21 22  2  0  0  0  0
 22 23  1  0  0  0  0
 23 24  2  0  0  0  0
 24 25  1  0  0  0  0
 25 26  2  0  0  0  0
 21 26  1  0  0  0  0
 24 27  1  0  0  0  0
 23 28  1  0  0  0  0
 11 29  1  0  0  0  0
 29 30  1  0  0  0  0
 30 31  1  0  0  0  0
 31 32  1  0  0  0  0
 32 33  1  0  0  0  0
 33 34  1  0  0  0  0
 30 34  1  0  0  0  0
 35 36  2  0  0  0  0
 36 37  1  0  0  0  0
 37 38  2  0  0  0  0
 37 39  1  0  0  0  0
 35 40  1  4  0  0  0
 40 41  2  0  0  0  0
 40 42  1  0  0  0  0
 43 44  2  0  0  0  0
 44 45  1  0  0  0  0
 45 46  2  0  0  0  0
 45 47  1  0  0  0  0
 43 48  1  4  0  0  0
 48 49  2  0  0  0  0
 48 50  1  0  0  0  0
M  END
>  <Name>
Afatinib (BIBW2992) Dimaleate

>  <CAS>
850140-73-7

>  <Formula>
C32H33ClFN5O11

>  <MolWt>
718.08 

>  <Bioactivity>
Afatinib (BIBW2992) irreversibly inhibits EGFR/HER2 including EGFR(wt), EGFR(L858R), EGFR(L858R/T790M) and HER2 with IC50 of 0.5 nM, 0.4 nM, 10 nM and 14 nM, respectively; 100-fold more active against Gefitinib-resistant L858R-T790M EGFR mutant.

>  <Pathways>
Tyrosine Kinase/Adaptors

>  <Target>
EGFR inhibitor; HER2 inhibitor

>  <Receptor>
EGFR;EGFR mutant forms; HER2

>  <Reference>
1. D Li, et al. Oncogene (2008) 27, 4702-4711

$$$$
T1794
  Mrv1561503291623562D          

 90 95  0  0  1  0            999 V2000
   11.1407    3.1886    0.0000 C   0  0  0  0  0  0  0  0  0  0  0  0
   10.9572    2.3843    0.0000 N   0  0  0  0  0  0  0  0  0  0  0  0
   11.6654    1.9612    0.0000 C   0  0  0  0  0  0  0  0  0  0  0  0
   12.2867    2.5040    0.0000 C   0  0  0  0  0  0  0  0  0  0  0  0
   11.9624    3.2626    0.0000 C   0  0  0  0  0  0  0  0  0  0  0  0
   12.3856    3.9708    0.0000 O   0  0  0  0  0  0  0  0  0  0  0  0
   13.0910    2.3204    0.0000 C   0  0  0  0  0  0  0  0  0  0  0  0
   10.5447    1.6699    0.0000 C   0  0  0  0  0  0  0  0  0  0  0  0
   11.1897    1.1555    0.0000 O   0  0  0  0  0  0  0  0  0  0  0  0
    9.9399    1.1087    0.0000 C   0  0  0  0  0  0  0  0  0  0  0  0
    9.1966    0.7508    0.0000 N   0  0  0  0  0  0  0  0  0  0  0  0
    8.3808    0.6278    0.0000 C   0  0  0  0  0  0  0  0  0  0  0  0
    8.3808   -0.1972    0.0000 O   0  0  0  0  0  0  0  0  0  0  0  0
    7.5650    0.7508    0.0000 C   0  0  0  0  0  0  0  0  0  0  0  0
    6.8217    1.1087    0.0000 N   0  0  0  0  0  0  0  0  0  0  0  0
    6.2170    1.6699    0.0000 C   0  0  0  0  0  0  0  0  0  0  0  0
    5.5719    1.1555    0.0000 O   0  0  0  0  0  0  0  0  0  0  0  0
    5.8045    2.3843    0.0000 C   0  0  0  0  0  0  0  0  0  0  0  0
    5.6209    3.1886    0.0000 N   0  0  0  0  0  0  0  0  0  0  0  0
    4.7992    3.2626    0.0000 C   0  0  0  0  0  0  0  0  0  0  0  0
    4.4749    2.5040    0.0000 C   0  0  0  0  0  0  0  0  0  0  0  0
    3.6706    2.3204    0.0000 O   0  0  0  0  0  0  0  0  0  0  0  0
    5.0962    1.9612    0.0000 C   0  0  0  0  0  0  0  0  0  0  0  0
    5.6825    4.0113    0.0000 C   0  0  0  0  0  0  0  0  0  0  0  0
    4.8782    4.1949    0.0000 O   0  0  0  0  0  0  0  0  0  0  0  0
    5.9839    4.7793    0.0000 C   0  0  0  0  0  0  0  0  0  0  0  0
    6.4983    5.4243    0.0000 N   0  0  0  0  0  0  0  0  0  0  0  0
    7.1800    5.8891    0.0000 C   0  0  0  0  0  0  0  0  0  0  0  0
    6.8220    6.6324    0.0000 O   0  0  0  0  0  0  0  0  0  0  0  0
    7.9683    6.1322    0.0000 C   0  0  0  0  0  0  0  0  0  0  0  0
    7.8453    6.9480    0.0000 N   0  0  0  0  0  0  0  0  0  0  0  0
    8.4904    7.4624    0.0000 C   0  0  0  0  0  0  0  0  0  0  0  0
    9.2583    7.1610    0.0000 O   0  0  0  0  0  0  0  0  0  0  0  0
    8.3674    8.2782    0.0000 C   0  0  0  0  0  0  0  0  0  0  0  0
    7.5994    8.5796    0.0000 C   0  0  0  0  0  0  0  0  0  0  0  0
    7.4765    9.3954    0.0000 C   0  0  0  0  0  0  0  0  0  0  0  0
    8.1215    9.9097    0.0000 C   0  0  0  0  0  0  0  0  0  0  0  0
    8.8894    9.6083    0.0000 C   0  0  0  0  0  0  0  0  0  0  0  0
    9.0124    8.7926    0.0000 C   0  0  0  0  0  0  0  0  0  0  0  0
    7.9985   10.7255    0.0000 C   0  0  0  0  0  0  0  0  0  0  0  0
    7.2663   11.1056    0.0000 N   0  0  0  0  0  0  0  0  0  0  0  0
    7.4014   11.9194    0.0000 O   0  0  0  0  0  0  0  0  0  0  0  0
    8.2172   12.0424    0.0000 C   0  0  0  0  0  0  0  0  0  0  0  0
    8.5862   11.3045    0.0000 C   0  0  0  0  0  0  0  0  0  0  0  0
    8.5972   12.7746    0.0000 C   0  0  0  0  0  0  0  0  0  0  0  0
    8.1531   13.4699    0.0000 C   0  0  0  0  0  0  0  0  0  0  0  0
    8.5331   14.2021    0.0000 C   0  0  0  0  0  0  0  0  0  0  0  0
    9.3573   14.2392    0.0000 C   0  0  0  0  0  0  0  0  0  0  0  0
    9.8014   13.5439    0.0000 C   0  0  0  0  0  0  0  0  0  0  0  0
    9.4214   12.8116    0.0000 C   0  0  0  0  0  0  0  0  0  0  0  0
    8.0890   14.8974    0.0000 O   0  0  0  0  0  0  0  0  0  0  0  0
    8.4690   15.6296    0.0000 C   0  0  0  0  0  0  0  0  0  0  0  0
    8.0249   16.3249    0.0000 C   0  0  0  0  0  0  0  0  0  0  0  0
    8.4049   17.0571    0.0000 C   0  0  0  0  0  0  0  0  0  0  0  0
    7.9608   17.7524    0.0000 C   0  0  0  0  0  0  0  0  0  0  0  0
    8.3408   18.4846    0.0000 C   0  0  0  0  0  0  0  0  0  0  0  0
    8.7933    6.1322    0.0000 C   0  0  0  0  0  0  0  0  0  0  0  0
    9.5817    5.8891    0.0000 C   0  0  0  0  0  0  0  0  0  0  0  0
    9.9396    6.6324    0.0000 O   0  0  0  0  0  0  0  0  0  0  0  0
   10.2633    5.4243    0.0000 C   0  0  0  0  0  0  0  0  0  0  0  0
   10.8244    6.0291    0.0000 O   0  0  0  0  0  0  0  0  0  0  0  0
   10.7777    4.7793    0.0000 N   0  0  0  0  0  0  0  0  0  0  0  0
   11.0791    4.0113    0.0000 C   0  0  0  0  0  0  0  0  0  0  0  0
   11.8834    4.1949    0.0000 O   0  0  0  0  0  0  0  0  0  0  0  0
    5.2695    5.1918    0.0000 C   0  0  0  0  0  0  0  0  0  0  0  0
    5.2695    6.0168    0.0000 O   0  0  0  0  0  0  0  0  0  0  0  0
    4.5550    4.7793    0.0000 C   0  0  0  0  0  0  0  0  0  0  0  0
    7.3218   -0.0376    0.0000 C   0  0  0  0  0  0  0  0  0  0  0  0
    7.8830   -0.6424    0.0000 O   0  0  0  0  0  0  0  0  0  0  0  0
    6.5175   -0.2212    0.0000 C   0  0  0  0  0  0  0  0  0  0  0  0
    5.9564    0.3836    0.0000 O   0  0  0  0  0  0  0  0  0  0  0  0
    6.2744   -1.0095    0.0000 C   0  0  0  0  0  0  0  0  0  0  0  0
    5.4700   -1.1931    0.0000 C   0  0  0  0  0  0  0  0  0  0  0  0
    5.2269   -1.9814    0.0000 C   0  0  0  0  0  0  0  0  0  0  0  0
    5.7880   -2.5862    0.0000 C   0  0  0  0  0  0  0  0  0  0  0  0
    5.5448   -3.3746    0.0000 O   0  0  0  0  0  0  0  0  0  0  0  0
    6.5923   -2.4026    0.0000 C   0  0  0  0  0  0  0  0  0  0  0  0
    6.8355   -1.6143    0.0000 C   0  0  0  0  0  0  0  0  0  0  0  0
    4.4226   -2.1650    0.0000 O   0  0  0  0  0  0  0  0  0  0  0  0
    3.8614   -1.5603    0.0000 S   0  0  0  0  0  0  0  0  0  0  0  0
    3.3003   -0.9555    0.0000 O   0  5  0  0  0  0  0  0  0  0  0  0
    3.2566   -2.1214    0.0000 O   0  0  0  0  0  0  0  0  0  0  0  0
    4.4662   -0.9991    0.0000 O   0  0  0  0  0  0  0  0  0  0  0  0
   10.4046    0.4271    0.0000 C   0  0  0  0  0  0  0  0  0  0  0  0
   11.2273    0.4887    0.0000 O   0  0  0  0  0  0  0  0  0  0  0  0
   10.0467   -0.3162    0.0000 C   0  0  0  0  0  0  0  0  0  0  0  0
   10.5114   -0.9979    0.0000 C   0  0  0  0  0  0  0  0  0  0  0  0
   10.1535   -1.7412    0.0000 O   0  0  0  0  0  0  0  0  0  0  0  0
   11.3341   -0.9362    0.0000 N   0  0  0  0  0  0  0  0  0  0  0  0
    2.7391   -0.3507    0.0000 Na  0  3  0  0  0  0  0  0  0  0  0  0
  1  2  1  0  0  0  0
  2  3  1  0  0  0  0
  3  4  1  0  0  0  0
  4  5  1  0  0  0  0
  1  5  1  0  0  0  0
  5  6  1  0  0  0  0
  4  7  1  0  0  0  0
  2  8  1  0  0  0  0
  8  9  2  0  0  0  0
  8 10  1  0  0  0  0
 10 11  1  0  0  0  0
 11 12  1  0  0  0  0
 12 13  2  0  0  0  0
 12 14  1  0  0  0  0
 14 15  1  0  0  0  0
 15 16  1  0  0  0  0
 16 17  2  0  0  0  0
 16 18  1  0  0  0  0
 18 19  1  0  0  0  0
 19 20  1  0  0  0  0
 20 21  1  0  0  0  0
 21 22  1  0  0  0  0
 21 23  1  0  0  0  0
 18 23  1  0  0  0  0
 19 24  1  0  0  0  0
 24 25  2  0  0  0  0
 24 26  1  0  0  0  0
 26 27  1  0  0  0  0
 27 28  1  0  0  0  0
 28 29  2  0  0  0  0
 28 30  1  0  0  0  0
 30 31  1  0  0  0  0
 31 32  1  0  0  0  0
 32 33  2  0  0  0  0
 32 34  1  0  0  0  0
 34 35  2  0  0  0  0
 35 36  1  0  0  0  0
 36 37  2  0  0  0  0
 37 38  1  0  0  0  0
 38 39  2  0  0  0  0
 34 39  1  0  0  0  0
 37 40  1  0  0  0  0
 40 41  2  0  0  0  0
 41 42  1  0  0  0  0
 42 43  1  0  0  0  0
 43 44  2  0  0  0  0
 40 44  1  0  0  0  0
 43 45  1  0  0  0  0
 45 46  2  0  0  0  0
 46 47  1  0  0  0  0
 47 48  2  0  0  0  0
 48 49  1  0  0  0  0
 49 50  2  0  0  0  0
 45 50  1  0  0  0  0
 47 51  1  0  0  0  0
 51 52  1  0  0  0  0
 52 53  1  0  0  0  0
 53 54  1  0  0  0  0
 54 55  1  0  0  0  0
 55 56  1  0  0  0  0
 30 57  1  0  0  0  0
 57 58  1  0  0  0  0
 58 59  1  0  0  0  0
 58 60  1  0  0  0  0
 60 61  1  0  0  0  0
 60 62  1  0  0  0  0
 62 63  1  0  0  0  0
  1 63  1  0  0  0  0
 63 64  2  0  0  0  0
 26 65  1  0  0  0  0
 65 66  1  0  0  0  0
 65 67  1  0  0  0  0
 14 68  1  0  0  0  0
 68 69  1  0  0  0  0
 68 70  1  0  0  0  0
 70 71  1  0  0  0  0
 70 72  1  0  0  0  0
 72 73  2  0  0  0  0
 73 74  1  0  0  0  0
 74 75  2  0  0  0  0
 75 76  1  0  0  0  0
 75 77  1  0  0  0  0
 77 78  2  0  0  0  0
 72 78  1  0  0  0  0
 74 79  1  0  0  0  0
 79 80  1  0  0  0  0
 80 81  1  0  0  0  0
 80 82  2  0  0  0  0
 80 83  2  0  0  0  0
 10 84  1  0  0  0  0
 84 85  1  0  0  0  0
 84 86  1  0  0  0  0
 86 87  1  0  0  0  0
 87 88  2  0  0  0  0
 87 89  1  0  0  0  0
M  CHG  2  81  -1  90   1
M  END
>  <Name>
Micafungin sodium

>  <CAS>
208538-73-2

>  <Formula>
C56H70N9NaO23S

>  <MolWt>
1292.26 

>  <Bioactivity>
Micafungin Sodium is an inhibitor of 1, 3-beta-D-glucan synthesis, used as an antifungal drug.

>  <Pathways>
Microbiology & Virology 

>  <Target>
Antifungal

>  <Receptor>
1, 3-beta-D-glucan synthesis

>  <Reference>
1.Langebrake C, et al. Clin Transplant. 2014 Mar;28(3):286-91.

$$$$
T2200
  Mrv1561503291623562D          

 30 28  0  0  0  0            999 V2000
    0.4125    0.0000    0.0000 H   0  3  0  0  0  0  0  0  0  0  0  0
    3.5946    0.0000    0.0000 H   0  3  0  0  0  0  0  0  0  0  0  0
   -1.6763   -2.0625    0.0000 C   0  0  0  0  0  0  0  0  0  0  0  0
   -1.6763   -2.8875    0.0000 C   0  0  0  0  0  0  0  0  0  0  0  0
   -0.9618   -3.3000    0.0000 C   0  0  0  0  0  0  0  0  0  0  0  0
   -0.2473   -2.8875    0.0000 N   0  0  0  0  0  0  0  0  0  0  0  0
   -0.2473   -2.0625    0.0000 C   0  0  0  0  0  0  0  0  0  0  0  0
    0.4672   -1.6500    0.0000 C   0  0  0  0  0  0  0  0  0  0  0  0
    1.1816   -2.0625    0.0000 N   0  0  0  0  0  0  0  0  0  0  0  0
    1.1816   -2.8875    0.0000 C   0  0  0  0  0  0  0  0  0  0  0  0
    0.4672   -3.3000    0.0000 C   0  0  0  0  0  0  0  0  0  0  0  0
    1.8961   -1.6500    0.0000 C   0  0  0  0  0  0  0  0  0  0  0  0
    2.6106   -2.0625    0.0000 C   0  0  0  0  0  0  0  0  0  0  0  0
    3.3250   -1.6500    0.0000 O   0  0  0  0  0  0  0  0  0  0  0  0
    4.0395   -2.0625    0.0000 C   0  0  0  0  0  0  0  0  0  0  0  0
    4.7540   -1.6500    0.0000 C   0  0  0  0  0  0  0  0  0  0  0  0
    5.4685   -2.0625    0.0000 O   0  0  0  0  0  0  0  0  0  0  0  0
   -0.9618   -4.1250    0.0000 C   0  0  0  0  0  0  0  0  0  0  0  0
   -0.2473   -4.5375    0.0000 C   0  0  0  0  0  0  0  0  0  0  0  0
   -0.2473   -5.3625    0.0000 C   0  0  0  0  0  0  0  0  0  0  0  0
   -0.9618   -5.7750    0.0000 C   0  0  0  0  0  0  0  0  0  0  0  0
   -1.6763   -5.3625    0.0000 C   0  0  0  0  0  0  0  0  0  0  0  0
   -1.6763   -4.5375    0.0000 C   0  0  0  0  0  0  0  0  0  0  0  0
   -2.3907   -3.3000    0.0000 C   0  0  0  0  0  0  0  0  0  0  0  0
   -3.1052   -2.8875    0.0000 C   0  0  0  0  0  0  0  0  0  0  0  0
   -3.1052   -2.0625    0.0000 C   0  0  0  0  0  0  0  0  0  0  0  0
   -2.3907   -1.6500    0.0000 C   0  0  0  0  0  0  0  0  0  0  0  0
   -3.8197   -1.6500    0.0000 Cl  0  0  0  0  0  0  0  0  0  0  0  0
   -0.4125    0.0000    0.0000 Cl  0  5  0  0  0  0  0  0  0  0  0  0
    2.7696    0.0000    0.0000 Cl  0  5  0  0  0  0  0  0  0  0  0  0
  3  4  2  0  0  0  0
  4  5  1  0  0  0  0
  5  6  1  0  0  0  0
  6  7  1  0  0  0  0
  7  8  1  0  0  0  0
  8  9  1  0  0  0  0
  9 10  1  0  0  0  0
 10 11  1  0  0  0  0
  6 11  1  0  0  0  0
  9 12  1  0  0  0  0
 12 13  1  0  0  0  0
 13 14  1  0  0  0  0
 14 15  1  0  0  0  0
 15 16  1  0  0  0  0
 16 17  1  0  0  0  0
  5 18  1  0  0  0  0
 18 19  2  0  0  0  0
 19 20  1  0  0  0  0
 20 21  2  0  0  0  0
 21 22  1  0  0  0  0
 22 23  2  0  0  0  0
 18 23  1  0  0  0  0
  4 24  1  0  0  0  0
 24 25  2  0  0  0  0
 25 26  1  0  0  0  0
 26 27  2  0  0  0  0
  3 27  1  0  0  0  0
 26 28  1  0  0  0  0
M  CHG  4   1   1   2   1  29  -1  30  -1
M  END
>  <Name>
Hydroxyzine 2HCl

>  <CAS>
2192-20-3

>  <Formula>
C21H27ClN2O2.2HCl

>  <MolWt>
447.83 

>  <Bioactivity>
A histamine H1 receptor antagonist that is effective in the treatment of chronic urticaria, dermatitis, and histamine-mediated pruritus. Unlike its major metabolite CETIRIZINE, it does cause drowsiness. It is also effective as an antiemetic, for relief of anxiety and tension, and as a sedative. 

>  <Pathways>
Neuroscience

>  <Target>
Histamine Receptor antagonist

>  <Receptor>
Histamine H1 receptor

>  <Reference>
1. Anthes JC, et al. Eur J Pharmacol, 2002, 449(3), 229-237.

$$$$
70806-55-2
  Mrv1561503291623562D          

 24 25  0  0  0  0            999 V2000
   -1.4289   -2.4750    0.0000 C   0  0  0  0  0  0  0  0  0  0  0  0
   -0.7145   -2.8875    0.0000 O   0  0  0  0  0  0  0  0  0  0  0  0
   -0.7145   -3.7125    0.0000 C   0  0  0  0  0  0  0  0  0  0  0  0
   -0.0000   -4.1250    0.0000 C   0  0  0  0  0  0  0  0  0  0  0  0
   -0.0000   -4.9500    0.0000 C   0  0  0  0  0  0  0  0  0  0  0  0
   -0.7145   -5.3625    0.0000 C   0  0  0  0  0  0  0  0  0  0  0  0
   -1.4289   -4.9500    0.0000 C   0  0  0  0  0  0  0  0  0  0  0  0
   -1.4289   -4.1250    0.0000 C   0  0  0  0  0  0  0  0  0  0  0  0
   -0.7145   -6.1875    0.0000 C   0  0  0  0  0  0  0  0  0  0  0  0
   -1.4289   -6.6000    0.0000 C   0  0  0  0  0  0  0  0  0  0  0  0
   -1.4289   -7.4250    0.0000 C   0  0  0  0  0  0  0  0  0  0  0  0
   -0.7145   -7.8375    0.0000 O   0  0  0  0  0  0  0  0  0  0  0  0
   -2.1434   -7.8375    0.0000 N   0  0  0  0  0  0  0  0  0  0  0  0
   -2.1434   -8.6625    0.0000 C   0  0  0  0  0  0  0  0  0  0  0  0
   -1.4289   -9.0750    0.0000 C   0  0  0  0  0  0  0  0  0  0  0  0
   -1.4289   -9.9000    0.0000 C   0  0  0  0  0  0  0  0  0  0  0  0
   -2.1434  -10.3125    0.0000 C   0  0  0  0  0  0  0  0  0  0  0  0
   -2.8579   -9.9000    0.0000 C   0  0  0  0  0  0  0  0  0  0  0  0
   -2.8579   -9.0750    0.0000 C   0  0  0  0  0  0  0  0  0  0  0  0
   -3.5724   -8.6625    0.0000 C   0  0  0  0  0  0  0  0  0  0  0  0
   -3.5724   -7.8375    0.0000 O   0  0  0  0  0  0  0  0  0  0  0  0
   -4.2868   -9.0750    0.0000 O   0  0  0  0  0  0  0  0  0  0  0  0
    0.7145   -3.7125    0.0000 O   0  0  0  0  0  0  0  0  0  0  0  0
    1.4289   -4.1250    0.0000 C   0  0  0  0  0  0  0  0  0  0  0  0
  1  2  1  0  0  0  0
  2  3  1  0  0  0  0
  3  4  2  0  0  0  0
  4  5  1  0  0  0  0
  5  6  2  0  0  0  0
  6  7  1  0  0  0  0
  7  8  2  0  0  0  0
  3  8  1  0  0  0  0
  9  6  1  4  0  0  0
  9 10  2  0  0  0  0
 10 11  1  0  0  0  0
 11 12  2  0  0  0  0
 11 13  1  0  0  0  0
 13 14  1  0  0  0  0
 14 15  2  0  0  0  0
 15 16  1  0  0  0  0
 16 17  2  0  0  0  0
 17 18  1  0  0  0  0
 18 19  2  0  0  0  0
 14 19  1  0  0  0  0
 19 20  1  0  0  0  0
 20 21  2  0  0  0  0
 20 22  1  0  0  0  0
  4 23  1  0  0  0  0
 23 24  1  0  0  0  0
M  END
>  <Name>
Trans-Tranilast

>  <CAS>
70806-55-2

>  <Formula>
C18H17NO5

>  <MolWt>
327.33 

>  <Bioactivity>
Trans-Tranilast is an antiallergic drug, used to treat bronchial asthma, allergic rhinitis and atopic dermatitis.

>  <Pathways>
Angiogensis

>  <Target>
AGTR antagonist

>  <Receptor>
Angiotensin Receptor

>  <Reference>
1. Rogosnitzky, MR, et al. Anticancer Res, 2012. 32(7): p. 2471-8.2. Swiderski, K, et al. Fibrogenesis Tissue Repair, 2014. 7(1): p. 1.

$$$$
181183-52-8
  Mrv1561503291623562D          

 32 33  0  0  0  0            999 V2000
   -0.3125    0.3297    0.0000 C   0  0  0  0  0  0  0  0  0  0  0  0
    0.4020   -0.0828    0.0000 C   0  0  0  0  0  0  0  0  0  0  0  0
    1.1164    0.3297    0.0000 C   0  0  0  0  0  0  0  0  0  0  0  0
    1.8309   -0.0828    0.0000 S   0  0  0  0  0  0  0  0  0  0  0  0
    2.2434    0.6316    0.0000 O   0  0  0  0  0  0  0  0  0  0  0  0
    1.4184   -0.7973    0.0000 O   0  0  0  0  0  0  0  0  0  0  0  0
    2.5454   -0.4953    0.0000 N   0  0  0  0  0  0  0  0  0  0  0  0
    3.2991   -0.1598    0.0000 C   0  0  0  0  0  0  0  0  0  0  0  0
    3.8511   -0.7729    0.0000 C   0  0  0  0  0  0  0  0  0  0  0  0
    3.4386   -1.4874    0.0000 C   0  0  0  0  0  0  0  0  0  0  0  0
    2.6316   -1.3158    0.0000 C   0  0  0  0  0  0  0  0  0  0  0  0
    0.4020   -0.9078    0.0000 C   0  0  0  0  0  0  0  0  0  0  0  0
   -0.3125   -1.3203    0.0000 C   0  0  0  0  0  0  0  0  0  0  0  0
   -1.0270   -0.9078    0.0000 C   0  0  0  0  0  0  0  0  0  0  0  0
   -1.0270   -0.0828    0.0000 C   0  0  0  0  0  0  0  0  0  0  0  0
   -1.8116    0.1721    0.0000 C   0  0  0  0  0  0  0  0  0  0  0  0
   -2.2965   -0.4953    0.0000 C   0  0  0  0  0  0  0  0  0  0  0  0
   -1.8116   -1.1628    0.0000 N   0  0  0  0  0  0  0  0  0  0  0  0
   -2.0665    0.9567    0.0000 C   0  0  0  0  0  0  0  0  0  0  0  0
   -2.8735    1.1282    0.0000 C   0  0  0  0  0  0  0  0  0  0  0  0
   -3.1284    1.9129    0.0000 N   0  0  0  0  0  0  0  0  0  0  0  0
   -3.9354    2.0844    0.0000 C   0  0  0  0  0  0  0  0  0  0  0  0
   -2.5764    2.5260    0.0000 C   0  0  0  0  0  0  0  0  0  0  0  0
    7.7624    0.3208    0.0000 C   0  0  0  0  0  0  0  0  0  0  0  0
    7.0479   -0.0917    0.0000 C   0  0  0  0  0  0  0  0  0  0  0  0
    7.0479   -0.9167    0.0000 O   0  0  0  0  0  0  0  0  0  0  0  0
    6.3334    0.3208    0.0000 C   0  0  0  0  0  0  0  0  0  0  0  0
    5.6190   -0.0917    0.0000 O   0  0  0  0  0  0  0  0  0  0  0  0
    6.3334    1.1458    0.0000 O   0  0  0  0  0  0  0  0  0  0  0  0
    8.4768   -0.0917    0.0000 C   0  0  0  0  0  0  0  0  0  0  0  0
    9.1913    0.3208    0.0000 O   0  0  0  0  0  0  0  0  0  0  0  0
    8.4768   -0.9167    0.0000 O   0  0  0  0  0  0  0  0  0  0  0  0
  1  2  2  0  0  0  0
  2  3  1  0  0  0  0
  3  4  1  0  0  0  0
  4  5  2  0  0  0  0
  4  6  2  0  0  0  0
  4  7  1  0  0  0  0
  7  8  1  0  0  0  0
  8  9  1  0  0  0  0
  9 10  1  0  0  0  0
 10 11  1  0  0  0  0
  7 11  1  0  0  0  0
  2 12  1  0  0  0  0
 12 13  2  0  0  0  0
 13 14  1  0  0  0  0
 14 15  2  0  0  0  0
  1 15  1  0  0  0  0
 15 16  1  0  0  0  0
 16 17  2  0  0  0  0
 17 18  1  0  0  0  0
 14 18  1  0  0  0  0
 16 19  1  0  0  0  0
 19 20  1  0  0  0  0
 20 21  1  0  0  0  0
 21 22  1  0  0  0  0
 21 23  1  0  0  0  0
 24 25  1  0  0  0  0
 25 26  1  0  0  0  0
 25 27  1  0  0  0  0
 27 28  2  0  0  0  0
 27 29  1  0  0  0  0
 24 30  1  0  0  0  0
 30 31  2  0  0  0  0
 30 32  1  0  0  0  0
M  END
>  <Name>
Almotriptan Malate

>  <CAS>
181183-52-8

>  <Formula>
C17H25N3O2S.C4H6O5

>  <MolWt>
469.55 

>  <Bioactivity>
Almotriptan Malate is a selective 5-hydroxytryptamine1B/1D (5-HT1B/1D) receptor agonist, used for the treatment of Migraine attacks in adults.

>  <Pathways>
Neuroscience

>  <Target>
5-HT Receptor agonist

>  <Receptor>
5-HT1B/1D

>  <Reference>
N/A

$$$$
873054-44-5
  Mrv1561503291623562D          

 29 31  0  0  0  0            999 V2000
    0.7145   -4.5375    0.0000 C   0  0  0  0  0  0  0  0  0  0  0  0
    0.0000   -4.1250    0.0000 C   0  0  0  0  0  0  0  0  0  0  0  0
    0.4125   -3.4105    0.0000 C   0  0  0  0  0  0  0  0  0  0  0  0
   -0.4125   -4.8395    0.0000 C   0  0  0  0  0  0  0  0  0  0  0  0
   -0.7145   -3.7125    0.0000 C   0  0  0  0  0  0  0  0  0  0  0  0
   -1.4289   -4.1250    0.0000 C   0  0  0  0  0  0  0  0  0  0  0  0
   -2.1434   -3.7125    0.0000 C   0  0  0  0  0  0  0  0  0  0  0  0
   -2.1434   -2.8875    0.0000 C   0  0  0  0  0  0  0  0  0  0  0  0
   -1.4289   -2.4750    0.0000 C   0  0  0  0  0  0  0  0  0  0  0  0
   -0.7145   -2.8875    0.0000 C   0  0  0  0  0  0  0  0  0  0  0  0
   -0.0000   -2.4750    0.0000 N   0  0  0  0  0  0  0  0  0  0  0  0
   -0.0000   -1.6500    0.0000 C   0  0  0  0  0  0  0  0  0  0  0  0
   -0.7145   -1.2375    0.0000 O   0  0  0  0  0  0  0  0  0  0  0  0
    0.7145   -1.2375    0.0000 C   0  0  0  0  0  0  0  0  0  0  0  0
    0.7145   -0.4125    0.0000 C   0  0  0  0  0  0  0  0  0  0  0  0
    1.4289   -0.0000    0.0000 N   0  0  0  0  0  0  0  0  0  0  0  0
    2.1434   -0.4125    0.0000 C   0  0  0  0  0  0  0  0  0  0  0  0
    2.8579   -0.0000    0.0000 C   0  0  0  0  0  0  0  0  0  0  0  0
    3.5724   -0.4125    0.0000 C   0  0  0  0  0  0  0  0  0  0  0  0
    3.5724   -1.2375    0.0000 C   0  0  0  0  0  0  0  0  0  0  0  0
    2.8579   -1.6500    0.0000 C   0  0  0  0  0  0  0  0  0  0  0  0
    2.1434   -1.2375    0.0000 C   0  0  0  0  0  0  0  0  0  0  0  0
    1.4289   -1.6500    0.0000 C   0  0  0  0  0  0  0  0  0  0  0  0
    1.4289   -2.4750    0.0000 O   0  0  0  0  0  0  0  0  0  0  0  0
   -2.8579   -2.4750    0.0000 O   0  0  0  0  0  0  0  0  0  0  0  0
   -2.8579   -4.1250    0.0000 C   0  0  0  0  0  0  0  0  0  0  0  0
   -3.5724   -4.5375    0.0000 C   0  0  0  0  0  0  0  0  0  0  0  0
   -3.2704   -3.4105    0.0000 C   0  0  0  0  0  0  0  0  0  0  0  0
   -2.4454   -4.8395    0.0000 C   0  0  0  0  0  0  0  0  0  0  0  0
  1  2  1  0  0  0  0
  2  3  1  0  0  0  0
  2  4  1  0  0  0  0
  2  5  1  0  0  0  0
  5  6  2  0  0  0  0
  6  7  1  0  0  0  0
  7  8  2  0  0  0  0
  8  9  1  0  0  0  0
  9 10  2  0  0  0  0
  5 10  1  0  0  0  0
 10 11  1  0  0  0  0
 11 12  1  0  0  0  0
 12 13  2  0  0  0  0
 12 14  1  0  0  0  0
 14 15  2  0  0  0  0
 15 16  1  0  0  0  0
 16 17  1  0  0  0  0
 17 18  2  0  0  0  0
 18 19  1  0  0  0  0
 19 20  2  0  0  0  0
 20 21  1  0  0  0  0
 21 22  2  0  0  0  0
 17 22  1  0  0  0  0
 22 23  1  0  0  0  0
 14 23  1  0  0  0  0
 23 24  2  0  0  0  0
  8 25  1  0  0  0  0
  7 26  1  0  0  0  0
 26 27  1  0  0  0  0
 26 28  1  0  0  0  0
 26 29  1  0  0  0  0
M  END
>  <Name>
Ivacaftor (VX-770)

>  <CAS>
873054-44-5

>  <Formula>
C24H28N2O3

>  <MolWt>
392.49 

>  <Bioactivity>
Ivacaftor (VX-770) is a potentiator of CFTR targeting G551D-CFTR and F508del-CFTR with EC50 of 100 nM and 25 nM in fisher rat thyroid cells, respectively.

>  <Pathways>
Membrane Transporter/Ion Channel

>  <Target>
CTFR activator

>  <Receptor>
F508del-CFTR;G551D-CFTR

>  <Reference>
1. Van Goor F, et al. Proc Natl Acad Sci U S A, 2009, 106(44), 18825-18830.

$$$$
107097-80-3
  Mrv1561503291623562D          

 30 30  0  0  0  0            999 V2000
   10.7171   -4.5375    0.0000 C   0  0  0  0  0  0  0  0  0  0  0  0
   11.4315   -4.9500    0.0000 C   0  0  0  0  0  0  0  0  0  0  0  0
   11.4315   -5.7750    0.0000 C   0  0  0  0  0  0  0  0  0  0  0  0
   10.7171   -6.1875    0.0000 C   0  0  0  0  0  0  0  0  0  0  0  0
   10.0026   -5.7750    0.0000 C   0  0  0  0  0  0  0  0  0  0  0  0
   10.0026   -4.9500    0.0000 C   0  0  0  0  0  0  0  0  0  0  0  0
    9.2881   -4.5375    0.0000 C   0  0  0  0  0  0  0  0  0  0  0  0
    8.5737   -4.9500    0.0000 N   0  0  0  0  0  0  0  0  0  0  0  0
    7.8592   -4.5375    0.0000 C   0  0  0  0  0  0  0  0  0  0  0  0
    7.1447   -4.9500    0.0000 C   0  0  0  0  0  0  0  0  0  0  0  0
    6.4302   -4.5375    0.0000 N   0  0  0  0  0  0  0  0  0  0  0  0
    5.7158   -4.9500    0.0000 C   0  0  0  0  0  0  0  0  0  0  0  0
    5.0013   -4.5375    0.0000 C   0  0  0  0  0  0  0  0  0  0  0  0
    4.2868   -4.9500    0.0000 C   0  0  0  0  0  0  0  0  0  0  0  0
    3.5724   -4.5375    0.0000 C   0  0  0  0  0  0  0  0  0  0  0  0
    2.8579   -4.9500    0.0000 C   0  0  0  0  0  0  0  0  0  0  0  0
    6.4302   -3.7125    0.0000 C   0  0  0  0  0  0  0  0  0  0  0  0
    5.7158   -3.3000    0.0000 C   0  0  0  0  0  0  0  0  0  0  0  0
    5.7158   -2.4750    0.0000 C   0  0  0  0  0  0  0  0  0  0  0  0
    5.0013   -2.0625    0.0000 O   0  0  0  0  0  0  0  0  0  0  0  0
    5.0013   -1.2375    0.0000 C   0  0  0  0  0  0  0  0  0  0  0  0
    7.1447   -5.7750    0.0000 O   0  0  0  0  0  0  0  0  0  0  0  0
    7.8592   -3.7125    0.0000 C   0  0  0  0  0  0  0  0  0  0  0  0
    8.5737   -3.3000    0.0000 C   0  0  0  0  0  0  0  0  0  0  0  0
    8.5737   -2.4750    0.0000 C   0  0  0  0  0  0  0  0  0  0  0  0
    7.8592   -2.0625    0.0000 O   0  0  0  0  0  0  0  0  0  0  0  0
    9.2881   -2.0625    0.0000 O   0  0  0  0  0  0  0  0  0  0  0  0
    9.2881   -3.7125    0.0000 O   0  0  0  0  0  0  0  0  0  0  0  0
   12.1460   -6.1875    0.0000 Cl  0  0  0  0  0  0  0  0  0  0  0  0
   12.1460   -4.5375    0.0000 Cl  0  0  0  0  0  0  0  0  0  0  0  0
  1  2  2  0  0  0  0
  2  3  1  0  0  0  0
  3  4  2  0  0  0  0
  4  5  1  0  0  0  0
  5  6  2  0  0  0  0
  1  6  1  0  0  0  0
  6  7  1  0  0  0  0
  7  8  1  0  0  0  0
  8  9  1  0  0  0  0
  9 10  1  0  0  0  0
 10 11  1  0  0  0  0
 11 12  1  0  0  0  0
 12 13  1  0  0  0  0
 13 14  1  0  0  0  0
 14 15  1  0  0  0  0
 15 16  1  0  0  0  0
 11 17  1  0  0  0  0
 17 18  1  0  0  0  0
 18 19  1  0  0  0  0
 19 20  1  0  0  0  0
 20 21  1  0  0  0  0
 10 22  2  0  0  0  0
  9 23  1  0  0  0  0
 23 24  1  0  0  0  0
 24 25  1  0  0  0  0
 25 26  1  0  0  0  0
 25 27  2  0  0  0  0
  7 28  2  0  0  0  0
  3 29  1  0  0  0  0
  2 30  1  0  0  0  0
M  END
>  <Name>
Loxiglumide

>  <CAS>
107097-80-3

>  <Formula>
C21H30Cl2N2O5

>  <MolWt>
461.38 

>  <Bioactivity>
Loxiglumide is CCK receptor antagonist. Cholecystokinin receptors or CCK receptors are a group of G-protein coupled receptors which bind the peptide hormones cholecystokinin (CCK) or gastrin.

>  <Pathways>
Metabolism

>  <Target>
CCK Receptor antagonist

>  <Receptor>
CCK Receptor

>  <Reference>
1. Teyssen S, et al. Pancreas. 1996 Nov;13(4):407-16.2. Shiratori K, et al. Pancreas. 2002 Jul;25(1):e1-5.

$$$$
108612-45-9
  Mrv1561503291623562D          

 32 36  0  0  0  0            999 V2000
    3.2789    1.2375    0.0000 C   0  0  0  0  0  0  0  0  0  0  0  0
    3.9934    0.8250    0.0000 C   0  0  0  0  0  0  0  0  0  0  0  0
    3.9934    0.0000    0.0000 C   0  0  0  0  0  0  0  0  0  0  0  0
    3.2789   -0.4125    0.0000 C   0  0  0  0  0  0  0  0  0  0  0  0
    2.5645   -0.0000    0.0000 C   0  0  0  0  0  0  0  0  0  0  0  0
    2.5645    0.8250    0.0000 C   0  0  0  0  0  0  0  0  0  0  0  0
    1.7798    1.0799    0.0000 N   0  0  0  0  0  0  0  0  0  0  0  0
    1.2949    0.4125    0.0000 C   0  0  0  0  0  0  0  0  0  0  0  0
    1.7798   -0.2549    0.0000 N   0  0  0  0  0  0  0  0  0  0  0  0
    0.4699    0.4125    0.0000 N   0  0  0  0  0  0  0  0  0  0  0  0
    0.0574   -0.3020    0.0000 C   0  0  0  0  0  0  0  0  0  0  0  0
   -0.7676   -0.3020    0.0000 C   0  0  0  0  0  0  0  0  0  0  0  0
   -1.1801    0.4125    0.0000 C   0  0  0  0  0  0  0  0  0  0  0  0
   -2.0051    0.4125    0.0000 N   0  0  0  0  0  0  0  0  0  0  0  0
   -2.4176    1.1270    0.0000 C   0  0  0  0  0  0  0  0  0  0  0  0
   -3.2426    1.1270    0.0000 N   0  0  0  0  0  0  0  0  0  0  0  0
   -3.6551    1.8414    0.0000 C   0  0  0  0  0  0  0  0  0  0  0  0
   -3.2426    2.5559    0.0000 C   0  0  0  0  0  0  0  0  0  0  0  0
   -2.4176    2.5559    0.0000 C   0  0  0  0  0  0  0  0  0  0  0  0
   -2.0051    1.8414    0.0000 N   0  0  0  0  0  0  0  0  0  0  0  0
   -2.0051    3.2704    0.0000 O   0  0  0  0  0  0  0  0  0  0  0  0
   -2.4176   -0.3020    0.0000 C   0  0  0  0  0  0  0  0  0  0  0  0
   -0.7676    1.1270    0.0000 C   0  0  0  0  0  0  0  0  0  0  0  0
    0.0574    1.1270    0.0000 C   0  0  0  0  0  0  0  0  0  0  0  0
    1.5249    1.8646    0.0000 C   0  0  0  0  0  0  0  0  0  0  0  0
    2.0769    2.4777    0.0000 C   0  0  0  0  0  0  0  0  0  0  0  0
    1.8220    3.2623    0.0000 C   0  0  0  0  0  0  0  0  0  0  0  0
    2.3740    3.8754    0.0000 C   0  0  0  0  0  0  0  0  0  0  0  0
    3.1810    3.7038    0.0000 C   0  0  0  0  0  0  0  0  0  0  0  0
    3.4359    2.9192    0.0000 C   0  0  0  0  0  0  0  0  0  0  0  0
    2.8839    2.3061    0.0000 C   0  0  0  0  0  0  0  0  0  0  0  0
    3.7330    4.3169    0.0000 F   0  0  0  0  0  0  0  0  0  0  0  0
  1  2  2  0  0  0  0
  2  3  1  0  0  0  0
  3  4  2  0  0  0  0
  4  5  1  0  0  0  0
  5  6  2  0  0  0  0
  1  6  1  0  0  0  0
  6  7  1  0  0  0  0
  7  8  1  0  0  0  0
  8  9  2  0  0  0  0
  5  9  1  0  0  0  0
  8 10  1  0  0  0  0
 10 11  1  0  0  0  0
 11 12  1  0  0  0  0
 12 13  1  0  0  0  0
 13 14  1  0  0  0  0
 14 15  1  0  0  0  0
 15 16  2  0  0  0  0
 16 17  1  0  0  0  0
 17 18  2  0  0  0  0
 18 19  1  0  0  0  0
 19 20  1  0  0  0  0
 15 20  1  0  0  0  0
 19 21  2  0  0  0  0
 14 22  1  0  0  0  0
 13 23  1  0  0  0  0
 23 24  1  0  0  0  0
 10 24  1  0  0  0  0
  7 25  1  0  0  0  0
 25 26  1  0  0  0  0
 26 27  2  0  0  0  0
 27 28  1  0  0  0  0
 28 29  2  0  0  0  0
 29 30  1  0  0  0  0
 30 31  2  0  0  0  0
 26 31  1  0  0  0  0
 29 32  1  0  0  0  0
M  END
>  <Name>
Mizolastine

>  <CAS>
108612-45-9

>  <Formula>
C24H25FN6O

>  <MolWt>
432.49 

>  <Bioactivity>
Mizolastine is a histamine H1-receptor antagonist with IC50 of 47 nM used in the treatment of hay fever (seasonal allergic rhinitis), hives and other allergic reactions.

>  <Pathways>
Neuroscience

>  <Target>
Histamine Receptor

>  <Receptor>
Histamine receptor

>  <Reference>
1. Brostoff J, et al.
Allergy. 1996 May; 51(5):320-5.

$$$$
878143-33-0
  Mrv1561503291623562D          

 30 32  0  0  0  0            999 V2000
    0.0000   -0.8250    0.0000 C   0  0  0  0  0  0  0  0  0  0  0  0
    0.0000    0.0000    0.0000 S   0  0  0  0  0  0  0  0  0  0  0  0
    0.0000    0.8250    0.0000 O   0  0  0  0  0  0  0  0  0  0  0  0
    0.8250   -0.0000    0.0000 O   0  0  0  0  0  0  0  0  0  0  0  0
   -0.8250    0.0000    0.0000 O   0  0  0  0  0  0  0  0  0  0  0  0
    3.8394    1.3348    0.0000 C   0  0  0  0  0  0  0  0  0  0  0  0
    3.8517    1.9096    0.0000 C   0  0  0  0  0  0  0  0  0  0  0  0
    4.6683    2.2650    0.0000 C   0  0  0  0  0  0  0  0  0  0  0  0
    5.2436    1.6203    0.0000 C   0  0  0  0  0  0  0  0  0  0  0  0
    6.0904    1.6509    0.0000 C   0  0  0  0  0  0  0  0  0  0  0  0
    6.3233    0.8548    0.0000 C   0  0  0  0  0  0  0  0  0  0  0  0
    5.6048    0.3687    0.0000 C   0  0  0  0  0  0  0  0  0  0  0  0
    4.8794    1.0660    0.0000 C   0  0  0  0  0  0  0  0  0  0  0  0
    4.8381    0.5828    0.0000 N   0  0  0  0  0  0  0  0  0  0  0  0
    4.0226    0.2711    0.0000 C   0  0  0  0  0  0  0  0  0  0  0  0
    3.4103    0.9792    0.0000 C   0  0  0  0  0  0  0  0  0  0  0  0
    2.5929    0.8681    0.0000 O   0  0  0  0  0  0  0  0  0  0  0  0
    7.0995    0.5753    0.0000 O   0  0  0  0  0  0  0  0  0  0  0  0
    7.2455   -0.2367    0.0000 C   0  0  0  0  0  0  0  0  0  0  0  0
    6.6154   -0.7692    0.0000 O   0  0  0  0  0  0  0  0  0  0  0  0
    8.0218   -0.5162    0.0000 C   0  0  0  0  0  0  0  0  0  0  0  0
    8.7041   -0.0526    0.0000 C   0  0  0  0  0  0  0  0  0  0  0  0
    9.3560   -0.5583    0.0000 N   0  0  0  0  0  0  0  0  0  0  0  0
    9.0764   -1.3345    0.0000 C   0  0  0  0  0  0  0  0  0  0  0  0
    9.4662   -2.0616    0.0000 C   0  0  0  0  0  0  0  0  0  0  0  0
    9.0314   -2.7627    0.0000 C   0  0  0  0  0  0  0  0  0  0  0  0
    8.2068   -2.7367    0.0000 C   0  0  0  0  0  0  0  0  0  0  0  0
    7.8170   -2.0096    0.0000 C   0  0  0  0  0  0  0  0  0  0  0  0
    8.2518   -1.3085    0.0000 C   0  0  0  0  0  0  0  0  0  0  0  0
    0.0000   -4.4127    0.0000 O   0  0  0  0  0  0  0  0  0  0  0  0
  1  2  1  0  0  0  0
  2  3  2  0  0  0  0
  2  4  2  0  0  0  0
  2  5  1  0  0  0  0
  6  7  1  0  0  0  0
  7  8  1  0  0  0  0
  8  9  1  0  0  0  0
  9 10  1  0  0  0  0
 10 11  1  0  0  0  0
 11 12  1  0  0  0  0
 12 13  1  0  0  0  0
  6 13  1  0  0  0  0
 13 14  1  0  0  0  0
  9 14  1  0  0  0  0
 14 15  1  0  0  0  0
 15 16  1  0  0  0  0
  7 16  1  0  0  0  0
 16 17  2  0  0  0  0
 11 18  1  0  0  0  0
 18 19  1  0  0  0  0
 19 20  2  0  0  0  0
 19 21  1  0  0  0  0
 21 22  2  0  0  0  0
 22 23  1  0  0  0  0
 23 24  1  0  0  0  0
 24 25  2  0  0  0  0
 25 26  1  0  0  0  0
 26 27  2  0  0  0  0
 27 28  1  0  0  0  0
 28 29  2  0  0  0  0
 24 29  1  0  0  0  0
 21 29  1  0  0  0  0
M  END
>  <Name>
Dalasetron Mesylate Hydrate

>  <CAS>
878143-33-0

>  <Formula>
C20H26N2O7S

>  <MolWt>
438.49 

>  <Bioactivity>
Dolasetron(MDL-73147) is a serotonin 5-HT3 receptor antagonist used to treat nausea and vomiting following chemotherapy.

>  <Pathways>
Neuroscience

>  <Target>
5-HT Receptor antagonist

>  <Receptor>
5-HT3 receptor

>  <Reference>
1. Faria C, et al. Am Health Drug Benefits. 2014 Jan;7(1):50-8.

$$$$
155206-00-1
  Mrv1561503291623562D          

 30 31  0  0  1  0            999 V2000
   -1.1592   -8.4635    0.0000 C   0  0  2  0  0  0  0  0  0  0  0  0
   -0.4917   -7.9786    0.0000 C   0  0  2  0  0  0  0  0  0  0  0  0
    0.1757   -8.4635    0.0000 C   0  0  1  0  0  0  0  0  0  0  0  0
    0.9603   -8.2086    0.0000 O   0  0  0  0  0  0  0  0  0  0  0  0
   -0.0792   -9.2482    0.0000 C   0  0  0  0  0  0  0  0  0  0  0  0
   -0.9042   -9.2482    0.0000 C   0  0  1  0  0  0  0  0  0  0  0  0
   -1.3892   -9.9156    0.0000 O   0  0  0  0  0  0  0  0  0  0  0  0
   -0.4917   -7.1536    0.0000 C   0  0  0  0  0  0  0  0  0  0  0  0
    0.2227   -6.7411    0.0000 C   0  0  0  0  0  0  0  0  0  0  0  0
    0.2227   -5.9161    0.0000 C   0  0  0  0  0  0  0  0  0  0  0  0
   -0.4917   -5.5036    0.0000 C   0  0  0  0  0  0  0  0  0  0  0  0
   -0.4917   -4.6786    0.0000 C   0  0  0  0  0  0  0  0  0  0  0  0
    0.2227   -4.2661    0.0000 C   0  0  0  0  0  0  0  0  0  0  0  0
    0.9372   -4.6786    0.0000 C   0  0  0  0  0  0  0  0  0  0  0  0
    1.6517   -4.2661    0.0000 N   0  0  0  0  0  0  0  0  0  0  0  0
    2.3661   -4.6786    0.0000 C   0  0  0  0  0  0  0  0  0  0  0  0
    3.0806   -4.2661    0.0000 C   0  0  0  0  0  0  0  0  0  0  0  0
    0.9372   -5.5036    0.0000 O   0  0  0  0  0  0  0  0  0  0  0  0
   -1.9438   -8.2086    0.0000 C   0  0  0  0  0  0  0  0  0  0  0  0
   -2.1153   -7.4016    0.0000 C   0  0  0  0  0  0  0  0  0  0  0  0
   -2.9000   -7.1467    0.0000 C   0  0  2  0  0  0  0  0  0  0  0  0
   -3.0715   -6.3397    0.0000 C   0  0  0  0  0  0  0  0  0  0  0  0
   -3.8561   -6.0848    0.0000 C   0  0  0  0  0  0  0  0  0  0  0  0
   -4.4692   -6.6368    0.0000 C   0  0  0  0  0  0  0  0  0  0  0  0
   -4.2977   -7.4438    0.0000 C   0  0  0  0  0  0  0  0  0  0  0  0
   -4.9108   -7.9958    0.0000 C   0  0  0  0  0  0  0  0  0  0  0  0
   -5.6954   -7.7409    0.0000 C   0  0  0  0  0  0  0  0  0  0  0  0
   -5.8669   -6.9339    0.0000 C   0  0  0  0  0  0  0  0  0  0  0  0
   -5.2538   -6.3819    0.0000 C   0  0  0  0  0  0  0  0  0  0  0  0
   -3.5130   -7.6987    0.0000 O   0  0  0  0  0  0  0  0  0  0  0  0
  1  2  1  0  0  0  0
  2  3  1  0  0  0  0
  3  4  1  1  0  0  0
  3  5  1  0  0  0  0
  5  6  1  0  0  0  0
  1  6  1  0  0  0  0
  6  7  1  1  0  0  0
  2  8  1  1  0  0  0
  8  9  1  0  0  0  0
  9 10  2  0  0  0  0
 10 11  1  0  0  0  0
 11 12  1  0  0  0  0
 12 13  1  0  0  0  0
 13 14  1  0  0  0  0
 14 15  1  0  0  0  0
 15 16  1  0  0  0  0
 16 17  1  0  0  0  0
 14 18  2  0  0  0  0
  1 19  1  6  0  0  0
 19 20  2  0  0  0  0
 20 21  1  0  0  0  0
 21 22  1  0  0  0  0
 22 23  1  0  0  0  0
 23 24  1  0  0  0  0
 24 25  2  0  0  0  0
 25 26  1  0  0  0  0
 26 27  2  0  0  0  0
 27 28  1  0  0  0  0
 28 29  2  0  0  0  0
 24 29  1  0  0  0  0
 21 30  1  1  0  0  0
M  END
>  <Name>
Bimatoprost

>  <CAS>
155206-00-1

>  <Formula>
C25H37NO4

>  <MolWt>
415.57 

>  <Bioactivity>
Bimatoprost is a prostaglandin analog used topically (as eye drops) to control the progression of glaucoma and in the management of ocular hypertension.

>  <Pathways>
Immunology/Inflammation

>  <Target>
PGE2 inhibitor

>  <Receptor>
PGE2, PGF2

>  <Reference>
1. Liang Y, et al. J Biol Chem, 2003, 278(29), 27267-27277.

$$$$
T1799
  Mrv1561503291623562D          

 85 86  0  0  0  0            999 V2000
  -11.9179   -1.6149    0.0000 C   0  0  0  0  0  0  0  0  0  0  0  0
  -11.2034   -1.2024    0.0000 C   0  0  0  0  0  0  0  0  0  0  0  0
  -10.4889   -1.6149    0.0000 C   0  0  0  0  0  0  0  0  0  0  0  0
  -10.4889   -2.4399    0.0000 C   0  0  0  0  0  0  0  0  0  0  0  0
   -9.7745   -1.2024    0.0000 C   0  0  0  0  0  0  0  0  0  0  0  0
   -9.0600   -1.6149    0.0000 C   0  0  0  0  0  0  0  0  0  0  0  0
   -9.0600   -2.4399    0.0000 C   0  0  0  0  0  0  0  0  0  0  0  0
   -8.3455   -1.2024    0.0000 C   0  0  0  0  0  0  0  0  0  0  0  0
   -7.6311   -1.6149    0.0000 C   0  0  0  0  0  0  0  0  0  0  0  0
   -6.9166   -1.2024    0.0000 C   0  0  0  0  0  0  0  0  0  0  0  0
   -6.2021   -1.6149    0.0000 C   0  0  0  0  0  0  0  0  0  0  0  0
   -5.4876   -1.2024    0.0000 C   0  0  0  0  0  0  0  0  0  0  0  0
   -4.7732   -1.6149    0.0000 C   0  0  0  0  0  0  0  0  0  0  0  0
   -4.0587   -1.2024    0.0000 C   0  0  0  0  0  0  0  0  0  0  0  0
   -3.3442   -1.6149    0.0000 C   0  0  0  0  0  0  0  0  0  0  0  0
   -2.6298   -1.2024    0.0000 C   0  0  0  0  0  0  0  0  0  0  0  0
   -2.6298   -0.3774    0.0000 O   0  0  0  0  0  0  0  0  0  0  0  0
   -1.9153   -1.6149    0.0000 N   0  0  0  0  0  0  0  0  0  0  0  0
   -1.2008   -1.2024    0.0000 C   0  0  0  0  0  0  0  0  0  0  0  0
   -1.5022   -0.4344    0.0000 C   0  0  0  0  0  0  0  0  0  0  0  0
   -1.5639    0.3883    0.0000 C   0  0  0  0  0  0  0  0  0  0  0  0
   -1.3803    1.1926    0.0000 C   0  0  0  0  0  0  0  0  0  0  0  0
   -0.9678    1.9071    0.0000 N   0  0  0  0  0  0  0  0  0  0  0  0
   -0.3630    2.4682    0.0000 C   0  0  0  0  0  0  0  0  0  0  0  0
   -0.8278    3.1499    0.0000 O   0  0  0  0  0  0  0  0  0  0  0  0
    0.3803    2.8262    0.0000 C   0  0  0  0  0  0  0  0  0  0  0  0
    0.0112    3.5640    0.0000 C   0  0  0  0  0  0  0  0  0  0  0  0
    0.5990    4.1430    0.0000 C   0  0  0  0  0  0  0  0  0  0  0  0
    1.3312    3.7630    0.0000 C   0  0  0  0  0  0  0  0  0  0  0  0
    1.1961    2.9491    0.0000 N   0  0  0  0  0  0  0  0  0  0  0  0
    2.0118    2.8262    0.0000 C   0  0  0  0  0  0  0  0  0  0  0  0
    2.2550    3.6145    0.0000 O   0  0  0  0  0  0  0  0  0  0  0  0
    2.7551    2.4682    0.0000 C   0  0  0  0  0  0  0  0  0  0  0  0
    3.3599    1.9071    0.0000 N   0  0  0  0  0  0  0  0  0  0  0  0
    3.7724    1.1926    0.0000 C   0  0  0  0  0  0  0  0  0  0  0  0
    4.5404    1.4940    0.0000 O   0  0  0  0  0  0  0  0  0  0  0  0
    3.9560    0.3883    0.0000 C   0  0  0  0  0  0  0  0  0  0  0  0
    3.8943   -0.4344    0.0000 N   0  0  0  0  0  0  0  0  0  0  0  0
    3.5929   -1.2024    0.0000 C   0  0  0  0  0  0  0  0  0  0  0  0
    4.3074   -1.6149    0.0000 O   0  0  0  0  0  0  0  0  0  0  0  0
    3.0786   -1.8474    0.0000 C   0  0  0  0  0  0  0  0  0  0  0  0
    3.7312   -2.3521    0.0000 C   0  0  0  0  0  0  0  0  0  0  0  0
    3.4529   -3.1287    0.0000 C   0  0  0  0  0  0  0  0  0  0  0  0
    2.6283   -3.1040    0.0000 C   0  0  0  0  0  0  0  0  0  0  0  0
    2.3969   -2.3121    0.0000 N   0  0  0  0  0  0  0  0  0  0  0  0
    1.6086   -2.5553    0.0000 C   0  0  0  0  0  0  0  0  0  0  0  0
    1.7315   -3.3711    0.0000 O   0  0  0  0  0  0  0  0  0  0  0  0
    0.7836   -2.5553    0.0000 C   0  0  0  0  0  0  0  0  0  0  0  0
   -0.0048   -2.3121    0.0000 N   0  0  0  0  0  0  0  0  0  0  0  0
   -0.6864   -1.8474    0.0000 C   0  0  0  0  0  0  0  0  0  0  0  0
   -1.2476   -2.4522    0.0000 O   0  0  0  0  0  0  0  0  0  0  0  0
    0.6606   -3.3711    0.0000 C   0  0  0  0  0  0  0  0  0  0  0  0
   -0.1074   -3.6725    0.0000 C   0  0  0  0  0  0  0  0  0  0  0  0
    1.3056   -3.8855    0.0000 O   0  0  0  0  0  0  0  0  0  0  0  0
    3.9176   -3.8104    0.0000 O   0  0  0  0  0  0  0  0  0  0  0  0
    4.7787    0.4499    0.0000 C   0  0  0  0  0  0  0  0  0  0  0  0
    5.2434   -0.2317    0.0000 C   0  0  0  0  0  0  0  0  0  0  0  0
    6.0661   -0.1701    0.0000 C   0  0  0  0  0  0  0  0  0  0  0  0
    6.4241    0.5732    0.0000 C   0  0  0  0  0  0  0  0  0  0  0  0
    7.2468    0.6349    0.0000 C   0  0  0  0  0  0  0  0  0  0  0  0
    7.7115   -0.0468    0.0000 C   0  0  0  0  0  0  0  0  0  0  0  0
    7.3535   -0.7901    0.0000 C   0  0  0  0  0  0  0  0  0  0  0  0
    6.5309   -0.8517    0.0000 C   0  0  0  0  0  0  0  0  0  0  0  0
    8.5342    0.0149    0.0000 O   0  0  0  0  0  0  0  0  0  0  0  0
    4.8855   -0.9750    0.0000 O   0  0  0  0  0  0  0  0  0  0  0  0
    5.1366    1.1932    0.0000 O   0  0  0  0  0  0  0  0  0  0  0  0
    3.2199    3.1499    0.0000 C   0  0  0  0  0  0  0  0  0  0  0  0
    2.8619    3.8932    0.0000 C   0  0  0  0  0  0  0  0  0  0  0  0
    3.3267    4.5748    0.0000 C   0  0  0  0  0  0  0  0  0  0  0  0
    2.9687    5.3181    0.0000 N   0  0  0  0  0  0  0  0  0  0  0  0
    4.0426    3.0882    0.0000 O   0  0  0  0  0  0  0  0  0  0  0  0
   -0.8026    3.6992    0.0000 O   0  0  0  0  0  0  0  0  0  0  0  0
   -2.1483    1.4940    0.0000 N   0  0  0  0  0  0  0  0  0  0  0  0
   -2.2712    2.3098    0.0000 C   0  0  0  0  0  0  0  0  0  0  0  0
   -3.0392    2.6112    0.0000 C   0  0  0  0  0  0  0  0  0  0  0  0
   -3.1622    3.4270    0.0000 N   0  0  0  0  0  0  0  0  0  0  0  0
   -2.3866    0.4499    0.0000 O   0  0  0  0  0  0  0  0  0  0  0  0
   11.6574    0.7145    0.0000 C   0  0  0  0  0  0  0  0  0  0  0  0
   11.2449   -0.0000    0.0000 C   0  0  0  0  0  0  0  0  0  0  0  0
   11.6574   -0.7145    0.0000 O   0  0  0  0  0  0  0  0  0  0  0  0
   10.4199   -0.0000    0.0000 O   0  0  0  0  0  0  0  0  0  0  0  0
    0.4125   -5.5355    0.0000 C   0  0  0  0  0  0  0  0  0  0  0  0
    0.0000   -6.2499    0.0000 C   0  0  0  0  0  0  0  0  0  0  0  0
    0.4125   -6.9644    0.0000 O   0  0  0  0  0  0  0  0  0  0  0  0
   -0.8250   -6.2499    0.0000 O   0  0  0  0  0  0  0  0  0  0  0  0
  1  2  1  0  0  0  0
  2  3  1  0  0  0  0
  3  4  1  0  0  0  0
  3  5  1  0  0  0  0
  5  6  1  0  0  0  0
  6  7  1  0  0  0  0
  6  8  1  0  0  0  0
  8  9  1  0  0  0  0
  9 10  1  0  0  0  0
 10 11  1  0  0  0  0
 11 12  1  0  0  0  0
 12 13  1  0  0  0  0
 13 14  1  0  0  0  0
 14 15  1  0  0  0  0
 15 16  1  0  0  0  0
 16 17  2  0  0  0  0
 16 18  1  0  0  0  0
 18 19  1  0  0  0  0
 19 20  1  0  0  0  0
 20 21  1  0  0  0  0
 21 22  1  0  0  0  0
 22 23  1  0  0  0  0
 23 24  1  0  0  0  0
 24 25  2  0  0  0  0
 24 26  1  0  0  0  0
 26 27  1  0  0  0  0
 27 28  1  0  0  0  0
 28 29  1  0  0  0  0
 29 30  1  0  0  0  0
 26 30  1  0  0  0  0
 30 31  1  0  0  0  0
 31 32  2  0  0  0  0
 31 33  1  0  0  0  0
 33 34  1  0  0  0  0
 34 35  1  0  0  0  0
 35 36  2  0  0  0  0
 35 37  1  0  0  0  0
 37 38  1  0  0  0  0
 38 39  1  0  0  0  0
 39 40  2  0  0  0  0
 39 41  1  0  0  0  0
 41 42  1  0  0  0  0
 42 43  1  0  0  0  0
 43 44  1  0  0  0  0
 44 45  1  0  0  0  0
 41 45  1  0  0  0  0
 45 46  1  0  0  0  0
 46 47  2  0  0  0  0
 46 48  1  0  0  0  0
 48 49  1  0  0  0  0
 49 50  1  0  0  0  0
 19 50  1  0  0  0  0
 50 51  2  0  0  0  0
 48 52  1  0  0  0  0
 52 53  1  0  0  0  0
 52 54  1  0  0  0  0
 43 55  1  0  0  0  0
 37 56  1  0  0  0  0
 56 57  1  0  0  0  0
 57 58  1  0  0  0  0
 58 59  2  0  0  0  0
 59 60  1  0  0  0  0
 60 61  2  0  0  0  0
 61 62  1  0  0  0  0
 62 63  2  0  0  0  0
 58 63  1  0  0  0  0
 61 64  1  0  0  0  0
 57 65  1  0  0  0  0
 56 66  1  0  0  0  0
 33 67  1  0  0  0  0
 67 68  1  0  0  0  0
 68 69  1  0  0  0  0
 69 70  1  0  0  0  0
 67 71  1  0  0  0  0
 27 72  1  0  0  0  0
 22 73  1  0  0  0  0
 73 74  1  0  0  0  0
 74 75  1  0  0  0  0
 75 76  1  0  0  0  0
 21 77  1  0  0  0  0
 78 79  1  0  0  0  0
 79 80  2  0  0  0  0
 79 81  1  0  0  0  0
 82 83  1  0  0  0  0
 83 84  2  0  0  0  0
 83 85  1  0  0  0  0
M  END
>  <Name>
Cancidas

>  <CAS>
179463-17-3

>  <Formula>
C56H96N10O19

>  <MolWt>
1213.42 

>  <Bioactivity>
Caspofungin Acetate is the acetate salt of an antimycotic echinocandin lipopeptide, semisynthetically derived from a fermentation product of the fungus Glarea lozoyensis. Caspofungin inhibits 1,3-beta-glucan synthase, resulting in decreased synthesis of beta(1,3)-D-glucan (an essential component of the fungal cell wall), weakening of the fungal cell wall, and fungal cell wall rupture. This agent is active against Aspergillus and Candida species.

>  <Pathways>
Microbiology & Virology 

>  <Target>
Antifungal

>  <Receptor>
1, 3-beta-D-glucan synthesis

>  <Reference>
1. McGee WT, et al. Crit Care Med, 2003, 31(5), 1577-1578.

$$$$
T2576
  Mrv1561503291623562D          

 32 35  0  0  0  0            999 V2000
    0.7888   -6.9609    0.0000 C   0  0  0  0  0  0  0  0  0  0  0  0
    0.7888   -6.1359    0.0000 C   0  0  0  0  0  0  0  0  0  0  0  0
    1.4563   -5.6510    0.0000 C   0  0  0  0  0  0  0  0  0  0  0  0
    1.2013   -4.8663    0.0000 C   0  0  0  0  0  0  0  0  0  0  0  0
    0.3763   -4.8663    0.0000 C   0  0  0  0  0  0  0  0  0  0  0  0
    0.1214   -5.6510    0.0000 N   0  0  0  0  0  0  0  0  0  0  0  0
   -0.0362   -4.1519    0.0000 C   0  0  0  0  0  0  0  0  0  0  0  0
    0.3763   -3.4374    0.0000 C   0  0  0  0  0  0  0  0  0  0  0  0
    1.2013   -3.4374    0.0000 C   0  0  0  0  0  0  0  0  0  0  0  0
    1.6138   -4.1519    0.0000 C   0  0  0  0  0  0  0  0  0  0  0  0
    2.4388   -4.1519    0.0000 F   0  0  0  0  0  0  0  0  0  0  0  0
    1.6138   -2.7229    0.0000 O   0  0  0  0  0  0  0  0  0  0  0  0
    1.2013   -2.0084    0.0000 C   0  0  0  0  0  0  0  0  0  0  0  0
    0.3763   -2.0084    0.0000 N   0  0  0  0  0  0  0  0  0  0  0  0
   -0.0362   -1.2940    0.0000 C   0  0  0  0  0  0  0  0  0  0  0  0
    0.3763   -0.5795    0.0000 N   0  0  0  0  0  0  0  0  0  0  0  0
    1.2013   -0.5795    0.0000 N   0  0  0  0  0  0  0  0  0  0  0  0
    1.6138   -1.2940    0.0000 C   0  0  0  0  0  0  0  0  0  0  0  0
    2.4208   -1.1225    0.0000 C   0  0  0  0  0  0  0  0  0  0  0  0
    2.5070   -0.3020    0.0000 C   0  0  0  0  0  0  0  0  0  0  0  0
    1.7534    0.0336    0.0000 C   0  0  0  0  0  0  0  0  0  0  0  0
    3.2215    0.1105    0.0000 O   0  0  0  0  0  0  0  0  0  0  0  0
    3.9360   -0.3020    0.0000 C   0  0  0  0  0  0  0  0  0  0  0  0
    4.6505    0.1105    0.0000 C   0  0  0  0  0  0  0  0  0  0  0  0
    4.6505    0.9355    0.0000 C   0  0  0  0  0  0  0  0  0  0  0  0
    5.3649   -0.3020    0.0000 O   0  0  0  0  0  0  0  0  0  0  0  0
    6.0794    0.1105    0.0000 C   0  0  0  0  0  0  0  0  0  0  0  0
    6.0794    0.9355    0.0000 O   0  0  0  0  0  0  0  0  0  0  0  0
    6.7939   -0.3020    0.0000 C   0  0  0  0  0  0  0  0  0  0  0  0
    7.5083    0.1105    0.0000 C   0  0  0  0  0  0  0  0  0  0  0  0
    6.7939   -1.1270    0.0000 N   0  0  0  0  0  0  0  0  0  0  0  0
    3.0339   -1.6745    0.0000 C   0  0  0  0  0  0  0  0  0  0  0  0
  1  2  1  0  0  0  0
  2  3  2  0  0  0  0
  3  4  1  0  0  0  0
  4  5  2  0  0  0  0
  5  6  1  0  0  0  0
  2  6  1  0  0  0  0
  5  7  1  0  0  0  0
  7  8  2  0  0  0  0
  8  9  1  0  0  0  0
  9 10  2  0  0  0  0
  4 10  1  0  0  0  0
 10 11  1  0  0  0  0
  9 12  1  0  0  0  0
 12 13  1  0  0  0  0
 13 14  2  0  0  0  0
 14 15  1  0  0  0  0
 15 16  2  0  0  0  0
 16 17  1  0  0  0  0
 17 18  1  0  0  0  0
 13 18  1  0  0  0  0
 18 19  2  0  0  0  0
 19 20  1  0  0  0  0
 20 21  2  0  0  0  0
 17 21  1  0  0  0  0
 20 22  1  0  0  0  0
 22 23  1  0  0  0  0
 23 24  1  0  0  0  0
 24 25  1  0  0  0  0
 24 26  1  0  0  0  0
 26 27  1  0  0  0  0
 27 28  2  0  0  0  0
 27 29  1  0  0  0  0
 29 30  1  0  0  0  0
 29 31  1  0  0  0  0
 19 32  1  0  0  0  0
M  END
>  <Name>
Brivanib Alaninate (BMS-582664)

>  <CAS>
649735-63-7

>  <Formula>
C22H24FN5O4

>  <MolWt>
441.46 

>  <Bioactivity>
Brivanib alaninate (BMS-582664) is the prodrug of BMS-540215, an ATP-competitive inhibitor against VEGFR2 with IC50 of 25 nM.

>  <Pathways>
Tyrosine Kinase/Adaptors

>  <Target>
VEGFR inhibitor

>  <Receptor>
VEGFR2;Flk1;FGFR1;VEGFR1

>  <Reference>
1. Bhide RS, et al. J Med Chem, 2006, 49(7), 2143-2146.

$$$$
T2303
  Mrv1561503291623562D          

 34 37  0  0  0  0            999 V2000
   -3.5724   -3.7125    0.0000 C   0  0  0  0  0  0  0  0  0  0  0  0
   -3.5724   -2.8875    0.0000 N   0  0  0  0  0  0  0  0  0  0  0  0
   -4.2868   -2.4750    0.0000 C   0  0  0  0  0  0  0  0  0  0  0  0
   -2.8579   -2.4750    0.0000 C   0  0  0  0  0  0  0  0  0  0  0  0
   -2.8579   -1.6500    0.0000 C   0  0  0  0  0  0  0  0  0  0  0  0
   -2.1434   -1.2375    0.0000 C   0  0  0  0  0  0  0  0  0  0  0  0
   -2.1434   -0.4125    0.0000 C   0  0  0  0  0  0  0  0  0  0  0  0
   -2.8579   -0.0000    0.0000 O   0  0  0  0  0  0  0  0  0  0  0  0
   -1.4289   -0.0000    0.0000 N   0  0  0  0  0  0  0  0  0  0  0  0
   -0.7145   -0.4125    0.0000 C   0  0  0  0  0  0  0  0  0  0  0  0
   -0.7145   -1.2375    0.0000 C   0  0  0  0  0  0  0  0  0  0  0  0
   -0.0000   -1.6500    0.0000 C   0  0  0  0  0  0  0  0  0  0  0  0
    0.7145   -1.2375    0.0000 C   0  0  0  0  0  0  0  0  0  0  0  0
    0.7145   -0.4125    0.0000 C   0  0  0  0  0  0  0  0  0  0  0  0
   -0.0000   -0.0000    0.0000 C   0  0  0  0  0  0  0  0  0  0  0  0
    1.4289    0.0000    0.0000 C   0  0  0  0  0  0  0  0  0  0  0  0
    2.1434   -0.4125    0.0000 N   0  0  0  0  0  0  0  0  0  0  0  0
    2.1434   -1.2375    0.0000 C   0  0  0  0  0  0  0  0  0  0  0  0
    1.4289   -1.6500    0.0000 N   0  0  0  0  0  0  0  0  0  0  0  0
    1.4289    0.8250    0.0000 N   0  0  0  0  0  0  0  0  0  0  0  0
    2.1434    1.2375    0.0000 C   0  0  0  0  0  0  0  0  0  0  0  0
    2.1434    2.0625    0.0000 C   0  0  0  0  0  0  0  0  0  0  0  0
    2.8579    2.4750    0.0000 C   0  0  0  0  0  0  0  0  0  0  0  0
    3.5724    2.0625    0.0000 C   0  0  0  0  0  0  0  0  0  0  0  0
    3.5724    1.2375    0.0000 C   0  0  0  0  0  0  0  0  0  0  0  0
    2.8579    0.8250    0.0000 C   0  0  0  0  0  0  0  0  0  0  0  0
    4.2868    2.4750    0.0000 F   0  0  0  0  0  0  0  0  0  0  0  0
    2.8579    3.3000    0.0000 Cl  0  0  0  0  0  0  0  0  0  0  0  0
   -1.4289   -1.6500    0.0000 O   0  0  0  0  0  0  0  0  0  0  0  0
   -1.4289   -2.4750    0.0000 C   0  0  0  0  0  0  0  0  0  0  0  0
   -0.7615   -2.9599    0.0000 C   0  0  0  0  0  0  0  0  0  0  0  0
   -1.0164   -3.7445    0.0000 C   0  0  0  0  0  0  0  0  0  0  0  0
   -1.8414   -3.7445    0.0000 O   0  0  0  0  0  0  0  0  0  0  0  0
   -2.0964   -2.9599    0.0000 C   0  0  0  0  0  0  0  0  0  0  0  0
  1  2  1  0  0  0  0
  2  3  1  0  0  0  0
  2  4  1  0  0  0  0
  5  4  1  4  0  0  0
  5  6  2  0  0  0  0
  6  7  1  0  0  0  0
  7  8  2  0  0  0  0
  7  9  1  0  0  0  0
  9 10  1  0  0  0  0
 10 11  2  0  0  0  0
 11 12  1  0  0  0  0
 12 13  2  0  0  0  0
 13 14  1  0  0  0  0
 14 15  2  0  0  0  0
 10 15  1  0  0  0  0
 14 16  1  0  0  0  0
 16 17  2  0  0  0  0
 17 18  1  0  0  0  0
 18 19  2  0  0  0  0
 13 19  1  0  0  0  0
 16 20  1  0  0  0  0
 20 21  1  0  0  0  0
 21 22  2  0  0  0  0
 22 23  1  0  0  0  0
 23 24  2  0  0  0  0
 24 25  1  0  0  0  0
 25 26  2  0  0  0  0
 21 26  1  0  0  0  0
 24 27  1  0  0  0  0
 23 28  1  0  0  0  0
 11 29  1  0  0  0  0
 29 30  1  0  0  0  0
 30 31  1  0  0  0  0
 31 32  1  0  0  0  0
 32 33  1  0  0  0  0
 33 34  1  0  0  0  0
 30 34  1  0  0  0  0
M  END
>  <Name>
Afatinib (BIBW2992)

>  <CAS>
439081-18-2

>  <Formula>
C24H25ClFN5O3

>  <MolWt>
485.94 

>  <Bioactivity>
Afatinib is an orally bioavailable anilino-quinazoline derivative and inhibitor of the receptor tyrosine kinase (RTK) epidermal growth factor receptor (ErbB; EGFR) family, with antineoplastic activity. Upon administration, afatinib selectively and irreversibly binds to and inhibits the epidermal growth factor receptors 1 (ErbB1; EGFR), 2 (ErbB2; HER2), and 4 (ErbB4; HER4), and certain EGFR mutants, including those caused by EGFR exon 19 deletion mutations or exon 21 (L858R) mutations. This may result in the inhibition of tumor growth and angiogenesis in tumor cells overexpressing these RTKs. Additionally, afatinib inhibits the EGFR T790M gatekeeper mutation which is resistant to treatment with first-generation EGFR inhibitors. EGFR, HER2 and HER4 are RTKs that belong to the EGFR superfamily; they play major roles in both tumor cell proliferation and tumor vascularization and are overexpressed in many cancer cell types.

>  <Pathways>
Tyrosine Kinase/Adaptors

>  <Target>
EGFR inhibitor

>  <Receptor>
EGFR

>  <Reference>
1. Prim N, et al. Rev Pneumol Clin. 2014 Oct;70(5):279-85.

$$$$
936727-05-8
  Mrv1561503291623562D          

 33 37  0  0  0  0            999 V2000
    0.5612   -3.3215    0.0000 C   0  0  0  0  0  0  0  0  0  0  0  0
    0.8434   -2.5463    0.0000 C   0  0  0  0  0  0  0  0  0  0  0  0
    0.3131   -1.9143    0.0000 C   0  0  0  0  0  0  0  0  0  0  0  0
    0.5953   -1.1391    0.0000 N   0  0  0  0  0  0  0  0  0  0  0  0
    1.4077   -0.9958    0.0000 C   0  0  0  0  0  0  0  0  0  0  0  0
    1.9380   -1.6278    0.0000 C   0  0  0  0  0  0  0  0  0  0  0  0
    1.6559   -2.4030    0.0000 C   0  0  0  0  0  0  0  0  0  0  0  0
    1.6899   -0.2206    0.0000 N   0  0  0  0  0  0  0  0  0  0  0  0
    2.5024   -0.0773    0.0000 C   0  0  0  0  0  0  0  0  0  0  0  0
    3.0327   -0.7093    0.0000 O   0  0  0  0  0  0  0  0  0  0  0  0
    2.7845    0.6979    0.0000 C   0  0  0  0  0  0  0  0  0  0  0  0
    3.3148    1.3299    0.0000 C   0  0  0  0  0  0  0  0  0  0  0  0
    3.5970    0.5547    0.0000 C   0  0  0  0  0  0  0  0  0  0  0  0
    2.0701    1.1104    0.0000 C   0  0  0  0  0  0  0  0  0  0  0  0
    1.3556    0.6979    0.0000 C   0  0  0  0  0  0  0  0  0  0  0  0
    0.6411    1.1104    0.0000 C   0  0  0  0  0  0  0  0  0  0  0  0
    0.6411    1.9354    0.0000 C   0  0  0  0  0  0  0  0  0  0  0  0
    1.3556    2.3479    0.0000 C   0  0  0  0  0  0  0  0  0  0  0  0
    2.0701    1.9354    0.0000 C   0  0  0  0  0  0  0  0  0  0  0  0
   -0.1435    2.1904    0.0000 O   0  0  0  0  0  0  0  0  0  0  0  0
   -0.6284    1.5229    0.0000 C   0  0  0  0  0  0  0  0  0  0  0  0
   -0.1435    0.8555    0.0000 O   0  0  0  0  0  0  0  0  0  0  0  0
   -1.3472    1.9279    0.0000 F   0  0  0  0  0  0  0  0  0  0  0  0
   -1.3472    1.1179    0.0000 F   0  0  0  0  0  0  0  0  0  0  0  0
   -0.4994   -2.0576    0.0000 C   0  0  0  0  0  0  0  0  0  0  0  0
   -0.7815   -2.8328    0.0000 C   0  0  0  0  0  0  0  0  0  0  0  0
   -1.5940   -2.9761    0.0000 C   0  0  0  0  0  0  0  0  0  0  0  0
   -2.1243   -2.3441    0.0000 C   0  0  0  0  0  0  0  0  0  0  0  0
   -1.8421   -1.5688    0.0000 C   0  0  0  0  0  0  0  0  0  0  0  0
   -1.0297   -1.4256    0.0000 C   0  0  0  0  0  0  0  0  0  0  0  0
   -1.8762   -3.7513    0.0000 C   0  0  0  0  0  0  0  0  0  0  0  0
   -1.3459   -4.3833    0.0000 O   0  0  0  0  0  0  0  0  0  0  0  0
   -2.6886   -3.8946    0.0000 O   0  0  0  0  0  0  0  0  0  0  0  0
  1  2  1  0  0  0  0
  2  3  2  0  0  0  0
  3  4  1  0  0  0  0
  4  5  2  0  0  0  0
  5  6  1  0  0  0  0
  6  7  2  0  0  0  0
  2  7  1  0  0  0  0
  5  8  1  0  0  0  0
  8  9  1  0  0  0  0
  9 10  2  0  0  0  0
  9 11  1  0  0  0  0
 11 12  1  0  0  0  0
 12 13  1  0  0  0  0
 11 13  1  0  0  0  0
 11 14  1  0  0  0  0
 14 15  2  0  0  0  0
 15 16  1  0  0  0  0
 16 17  2  0  0  0  0
 17 18  1  0  0  0  0
 18 19  2  0  0  0  0
 14 19  1  0  0  0  0
 17 20  1  0  0  0  0
 20 21  1  0  0  0  0
 21 22  1  0  0  0  0
 16 22  1  0  0  0  0
 21 23  1  0  0  0  0
 21 24  1  0  0  0  0
  3 25  1  0  0  0  0
 25 26  2  0  0  0  0
 26 27  1  0  0  0  0
 27 28  2  0  0  0  0
 28 29  1  0  0  0  0
 29 30  2  0  0  0  0
 25 30  1  0  0  0  0
 27 31  1  0  0  0  0
 31 32  2  0  0  0  0
 31 33  1  0  0  0  0
M  END
>  <Name>
Lumacaftor(VX 809)

>  <CAS>
936727-05-8

>  <Formula>
C24H18F2N2O5

>  <MolWt>
452.41 

>  <Bioactivity>
VX-809 (Lumacaftor) acts to correct CFTR mutations common in cystic fibrosis by increasing mutant CFTR (F508del-CFTR) maturation,EC50 of 0.1 ?M in fisher rat thyroid cells. Phase 3.

>  <Pathways>
Membrane Transporter/Ion Channel

>  <Target>
CFTR modulator

>  <Receptor>
CFTR

>  <Reference>
1. Van Goor F, et al. Proc Natl Acad Sci U S A, 2011, 108(46), 18843-18848.

$$$$
73573-87-2
  Mrv1561503291623562D          

 25 26  0  0  0  0            999 V2000
    0.7145   -3.7125    0.0000 C   0  0  0  0  0  0  0  0  0  0  0  0
    1.4289   -4.1250    0.0000 C   0  0  0  0  0  0  0  0  0  0  0  0
    1.4289   -4.9500    0.0000 C   0  0  0  0  0  0  0  0  0  0  0  0
    0.7145   -5.3625    0.0000 C   0  0  0  0  0  0  0  0  0  0  0  0
    0.0000   -4.9500    0.0000 C   0  0  0  0  0  0  0  0  0  0  0  0
   -0.0000   -4.1250    0.0000 C   0  0  0  0  0  0  0  0  0  0  0  0
   -0.7145   -3.7125    0.0000 N   0  0  0  0  0  0  0  0  0  0  0  0
   -1.4289   -4.1250    0.0000 C   0  0  0  0  0  0  0  0  0  0  0  0
   -2.1434   -3.7125    0.0000 O   0  0  0  0  0  0  0  0  0  0  0  0
   -0.7145   -5.3625    0.0000 O   0  0  0  0  0  0  0  0  0  0  0  0
    2.1434   -3.7125    0.0000 C   0  0  0  0  0  0  0  0  0  0  0  0
    2.8579   -4.1250    0.0000 C   0  0  0  0  0  0  0  0  0  0  0  0
    3.5724   -3.7125    0.0000 N   0  0  0  0  0  0  0  0  0  0  0  0
    4.2868   -4.1250    0.0000 C   0  0  0  0  0  0  0  0  0  0  0  0
    5.0013   -3.7125    0.0000 C   0  0  0  0  0  0  0  0  0  0  0  0
    5.7158   -4.1250    0.0000 C   0  0  0  0  0  0  0  0  0  0  0  0
    6.4302   -3.7125    0.0000 C   0  0  0  0  0  0  0  0  0  0  0  0
    7.1447   -4.1250    0.0000 C   0  0  0  0  0  0  0  0  0  0  0  0
    7.1447   -4.9500    0.0000 C   0  0  0  0  0  0  0  0  0  0  0  0
    7.8592   -5.3625    0.0000 O   0  0  0  0  0  0  0  0  0  0  0  0
    8.5737   -4.9500    0.0000 C   0  0  0  0  0  0  0  0  0  0  0  0
    6.4302   -5.3625    0.0000 C   0  0  0  0  0  0  0  0  0  0  0  0
    5.7158   -4.9500    0.0000 C   0  0  0  0  0  0  0  0  0  0  0  0
    4.2868   -4.9500    0.0000 C   0  0  0  0  0  0  0  0  0  0  0  0
    2.1434   -2.8875    0.0000 O   0  0  0  0  0  0  0  0  0  0  0  0
  1  2  2  0  0  0  0
  2  3  1  0  0  0  0
  3  4  2  0  0  0  0
  4  5  1  0  0  0  0
  5  6  2  0  0  0  0
  1  6  1  0  0  0  0
  6  7  1  0  0  0  0
  7  8  1  0  0  0  0
  8  9  2  0  0  0  0
  5 10  1  0  0  0  0
  2 11  1  0  0  0  0
 11 12  1  0  0  0  0
 12 13  1  0  0  0  0
 13 14  1  0  0  0  0
 14 15  1  0  0  0  0
 15 16  1  0  0  0  0
 16 17  2  0  0  0  0
 17 18  1  0  0  0  0
 18 19  2  0  0  0  0
 19 20  1  0  0  0  0
 20 21  1  0  0  0  0
 19 22  1  0  0  0  0
 22 23  2  0  0  0  0
 16 23  1  0  0  0  0
 14 24  1  0  0  0  0
 11 25  1  0  0  0  0
M  END
>  <Name>
Formoterol

>  <CAS>
73573-87-2

>  <Formula>
C19H24N2O4

>  <MolWt>
344.40 

>  <Bioactivity>
Formoterol is a novel highly ?2-selective adrenergic agonist and holds promise as a ?2-agonist that could impart selective beneficial metabolic effects.

>  <Pathways>
GPCR/G Protein

>  <Target>
Adrenergic Receptor agonist

>  <Receptor>
?2-selective adrenergic 

>  <Reference>
1. Kobayashi Y, et al. Pulm Pharmacol Ther. 2012 Jun;25(3):201-7.

$$$$
T2199
  Mrv1561503291623562D          

 20 21  0  0  0  0            999 V2000
   -4.1801    3.1152    0.0000 C   0  0  0  0  0  0  0  0  0  0  0  0
   -4.1801    2.2902    0.0000 C   0  0  0  0  0  0  0  0  0  0  0  0
   -3.4656    1.8777    0.0000 C   0  0  0  0  0  0  0  0  0  0  0  0
   -2.7512    1.4652    0.0000 C   0  0  0  0  0  0  0  0  0  0  0  0
   -2.7512    0.6402    0.0000 N   0  0  0  0  0  0  0  0  0  0  0  0
   -2.0837    0.1553    0.0000 C   0  0  0  0  0  0  0  0  0  0  0  0
   -2.3387   -0.6294    0.0000 N   0  0  0  0  0  0  0  0  0  0  0  0
   -3.1637   -0.6294    0.0000 C   0  0  0  0  0  0  0  0  0  0  0  0
   -3.4186    0.1553    0.0000 N   0  0  0  0  0  0  0  0  0  0  0  0
   -3.0531    2.5922    0.0000 C   0  0  0  0  0  0  0  0  0  0  0  0
   -2.2281    2.5922    0.0000 C   0  0  0  0  0  0  0  0  0  0  0  0
   -1.8156    1.8777    0.0000 C   0  0  0  0  0  0  0  0  0  0  0  0
   -0.9906    1.8777    0.0000 C   0  0  0  0  0  0  0  0  0  0  0  0
   -3.8781    1.1632    0.0000 C   0  0  0  0  0  0  0  0  0  0  0  0
   -4.2906    0.4487    0.0000 N   0  0  0  0  0  0  0  0  0  0  0  0
   -4.8946    1.8777    0.0000 C   0  0  0  0  0  0  0  0  0  0  0  0
   -5.6091    2.2902    0.0000 C   0  0  0  0  0  0  0  0  0  0  0  0
   -5.6091    3.1152    0.0000 C   0  0  0  0  0  0  0  0  0  0  0  0
   -4.8946    3.5277    0.0000 C   0  0  0  0  0  0  0  0  0  0  0  0
   -6.3235    3.5277    0.0000 Cl  0  0  0  0  0  0  0  0  0  0  0  0
  1  2  2  0  0  0  0
  2  3  1  0  0  0  0
  3  4  1  0  0  0  0
  4  5  1  0  0  0  0
  5  6  1  0  0  0  0
  6  7  2  0  0  0  0
  7  8  1  0  0  0  0
  8  9  2  0  0  0  0
  5  9  1  0  0  0  0
  3 10  1  0  0  0  0
 10 11  1  0  0  0  0
 11 12  1  0  0  0  0
 12 13  1  0  0  0  0
  3 14  1  0  0  0  0
 14 15  3  0  0  0  0
  2 16  1  0  0  0  0
 16 17  2  0  0  0  0
 17 18  1  0  0  0  0
 18 19  2  0  0  0  0
  1 19  1  0  0  0  0
 18 20  1  0  0  0  0
M  END
>  <Name>
Myclobutanil

>  <CAS>
88671-89-0

>  <Formula>
C15H17ClN4

>  <MolWt>
288.78 

>  <Bioactivity>
Myclobutanil is a triazole chemical used as a fungicide. It is a steroid demethylation inhibitor, specifically inhibiting ergosterol biosynthesis. Ergosterol is a critical component of fungal cell membranes.

>  <Pathways>
Microbiology & Virology

>  <Target>
Antifungal

>  <Receptor>
Others

>  <Reference>
1. Yan J, et al. Chirality. 2014 Jan;26(1):51-5. 

$$$$
71620-89-8
  Mrv1561503291623562D          

 23 25  0  0  0  0            999 V2000
   -0.7145    2.0625    0.0000 C   0  0  0  0  0  0  0  0  0  0  0  0
   -0.7145    1.2375    0.0000 C   0  0  0  0  0  0  0  0  0  0  0  0
   -1.4289    0.8250    0.0000 O   0  0  0  0  0  0  0  0  0  0  0  0
   -1.4289    0.0000    0.0000 C   0  0  0  0  0  0  0  0  0  0  0  0
   -0.7145   -0.4125    0.0000 C   0  0  0  0  0  0  0  0  0  0  0  0
   -0.7145   -1.2375    0.0000 C   0  0  0  0  0  0  0  0  0  0  0  0
   -1.4289   -1.6500    0.0000 C   0  0  0  0  0  0  0  0  0  0  0  0
   -2.1434   -1.2375    0.0000 C   0  0  0  0  0  0  0  0  0  0  0  0
   -2.1434   -0.4125    0.0000 C   0  0  0  0  0  0  0  0  0  0  0  0
   -2.8579    0.0000    0.0000 O   0  0  0  0  0  0  0  0  0  0  0  0
   -3.5724   -0.4125    0.0000 C   0  0  0  0  0  0  0  0  0  0  0  0
   -4.2868    0.0000    0.0000 C   0  0  0  0  0  0  0  0  0  0  0  0
   -5.0013   -0.4125    0.0000 C   0  0  0  0  0  0  0  0  0  0  0  0
   -5.7158    0.0000    0.0000 N   0  3  0  0  0  0  0  0  0  0  0  0
   -5.7158    0.8250    0.0000 C   0  0  0  0  0  0  0  0  0  0  0  0
   -5.0013    1.2375    0.0000 C   0  0  0  0  0  0  0  0  0  0  0  0
   -4.2868    0.8250    0.0000 O   0  0  0  0  0  0  0  0  0  0  0  0
   -3.5724   -1.2375    0.0000 C   0  0  0  0  0  0  0  0  0  0  0  0
   -2.8579   -1.6500    0.0000 C   0  0  0  0  0  0  0  0  0  0  0  0
   -2.8579   -2.4750    0.0000 C   0  0  0  0  0  0  0  0  0  0  0  0
   -3.5724   -2.8875    0.0000 C   0  0  0  0  0  0  0  0  0  0  0  0
   -4.2868   -2.4750    0.0000 C   0  0  0  0  0  0  0  0  0  0  0  0
   -4.2868   -1.6500    0.0000 C   0  0  0  0  0  0  0  0  0  0  0  0
  1  2  1  0  0  0  0
  2  3  1  0  0  0  0
  3  4  1  0  0  0  0
  4  5  2  0  0  0  0
  5  6  1  0  0  0  0
  6  7  2  0  0  0  0
  7  8  1  0  0  0  0
  8  9  2  0  0  0  0
  4  9  1  0  0  0  0
  9 10  1  0  0  0  0
 10 11  1  0  0  0  0
 11 12  1  0  0  0  0
 12 13  1  0  0  0  0
 13 14  1  0  0  0  0
 14 15  1  0  0  0  0
 15 16  1  0  0  0  0
 16 17  1  0  0  0  0
 12 17  1  0  0  0  0
 11 18  1  0  0  0  0
 18 19  2  0  0  0  0
 19 20  1  0  0  0  0
 20 21  2  0  0  0  0
 21 22  1  0  0  0  0
 22 23  2  0  0  0  0
 18 23  1  0  0  0  0
M  CHG  1  14   1
M  END
>  <Name>
Reboxetine

>  <CAS>
71620-89-8

>  <Formula>
C19H23NO3

>  <MolWt>
313.39 

>  <Bioactivity>
Reboxetine is an antidepressant drug used in the treatment of clinical depression, panic disorder and ADD/ADHD. Its mesylate (i.e. methanesulfonate) salt is sold under tradenames including Edronax, Norebox, Prolift, Solvex, Davedax or Vestra. Reboxetine has two chiral centers, but it only exists as two enantiomers, (R,R)-(-)- and (S,S)-(+)-reboxetine.

>  <Pathways>
Neuroscience

>  <Target>
Norepinephrine inhibitor

>  <Receptor>
norepinephrine

>  <Reference>
1. Rauhut AS, et al. J Pharmacol Exp Ther. 2002 Nov;303(2):664-72.

$$$$
T2591
  Mrv1561503291623562D          

 18 20  0  0  0  0            999 V2000
   -0.0850    0.1225    0.0000 C   0  0  0  0  0  0  0  0  0  0  0  0
   -0.1712   -0.6979    0.0000 C   0  0  0  0  0  0  0  0  0  0  0  0
   -0.0850   -1.5184    0.0000 C   0  0  0  0  0  0  0  0  0  0  0  0
   -0.8386   -1.8540    0.0000 C   0  0  0  0  0  0  0  0  0  0  0  0
   -1.3907   -1.2409    0.0000 C   0  0  0  0  0  0  0  0  0  0  0  0
   -0.9782   -0.5264    0.0000 N   0  0  0  0  0  0  0  0  0  0  0  0
    0.6538   -0.6979    0.0000 C   0  0  0  0  0  0  0  0  0  0  0  0
    1.1387   -0.0305    0.0000 N   0  0  0  0  0  0  0  0  0  0  0  0
    1.9233   -0.2854    0.0000 C   0  0  0  0  0  0  0  0  0  0  0  0
    2.6378    0.1271    0.0000 C   0  0  0  0  0  0  0  0  0  0  0  0
    3.3523   -0.2854    0.0000 C   0  0  0  0  0  0  0  0  0  0  0  0
    3.3523   -1.1104    0.0000 C   0  0  0  0  0  0  0  0  0  0  0  0
    2.6378   -1.5229    0.0000 C   0  0  0  0  0  0  0  0  0  0  0  0
    1.9233   -1.1104    0.0000 C   0  0  0  0  0  0  0  0  0  0  0  0
    1.1387   -1.3654    0.0000 N   0  0  0  0  0  0  0  0  0  0  0  0
    2.6378    0.9521    0.0000 C   0  0  0  0  0  0  0  0  0  0  0  0
    1.9233    1.3646    0.0000 O   0  0  0  0  0  0  0  0  0  0  0  0
    3.3523    1.3646    0.0000 N   0  0  0  0  0  0  0  0  0  0  0  0
  1  2  1  0  0  0  0
  2  3  1  0  0  0  0
  3  4  1  0  0  0  0
  4  5  1  0  0  0  0
  5  6  1  0  0  0  0
  2  6  1  0  0  0  0
  2  7  1  0  0  0  0
  7  8  2  0  0  0  0
  8  9  1  0  0  0  0
  9 10  2  0  0  0  0
 10 11  1  0  0  0  0
 11 12  2  0  0  0  0
 12 13  1  0  0  0  0
 13 14  2  0  0  0  0
  9 14  1  0  0  0  0
 14 15  1  0  0  0  0
  7 15  1  0  0  0  0
 10 16  1  0  0  0  0
 16 17  2  0  0  0  0
 16 18  1  0  0  0  0
M  END
>  <Name>
Veliparib (ABT-888)

>  <CAS>
912444-00-9

>  <Formula>
C13H16N4O

>  <MolWt>
244.29 

>  <Bioactivity>
Veliparib (ABT-888) is a potent inhibitor of PARP1 and PARP2 with Ki of 5.2 nM and 2.9 nM in cell-free assays, respectively. It is inactive to SIRT2. Phase 3.

>  <Pathways>
Chromatin/Epigenetic

>  <Target>
PARP inhibitor

>  <Receptor>
PARP1, PARP2

>  <Reference>
1. Albert JM, et al, Clin Cancer Res, 2007, 13(10), 3033-3042. 

$$$$
91374-20-8
  Mrv1561503291623562D          

 21 20  0  0  0  0            999 V2000
    0.4125    0.0000    0.0000 H   0  3  0  0  0  0  0  0  0  0  0  0
    4.9131   -2.4316    0.0000 C   0  0  0  0  0  0  0  0  0  0  0  0
    4.1986   -2.0191    0.0000 C   0  0  0  0  0  0  0  0  0  0  0  0
    4.1986   -1.1941    0.0000 C   0  0  0  0  0  0  0  0  0  0  0  0
    4.9131   -0.7816    0.0000 C   0  0  0  0  0  0  0  0  0  0  0  0
    5.6275   -1.1941    0.0000 C   0  0  0  0  0  0  0  0  0  0  0  0
    5.6275   -2.0191    0.0000 C   0  0  0  0  0  0  0  0  0  0  0  0
    6.4121   -2.2740    0.0000 N   0  0  0  0  0  0  0  0  0  0  0  0
    6.8971   -1.6066    0.0000 C   0  0  0  0  0  0  0  0  0  0  0  0
    7.7221   -1.6066    0.0000 O   0  0  0  0  0  0  0  0  0  0  0  0
    6.4121   -0.9391    0.0000 C   0  0  0  0  0  0  0  0  0  0  0  0
    4.9131    0.0434    0.0000 C   0  0  0  0  0  0  0  0  0  0  0  0
    4.1986    0.4559    0.0000 C   0  0  0  0  0  0  0  0  0  0  0  0
    4.1986    1.2809    0.0000 N   0  0  0  0  0  0  0  0  0  0  0  0
    3.4841    1.6934    0.0000 C   0  0  0  0  0  0  0  0  0  0  0  0
    3.4841    2.5184    0.0000 C   0  0  0  0  0  0  0  0  0  0  0  0
    2.7696    2.9309    0.0000 C   0  0  0  0  0  0  0  0  0  0  0  0
    4.9131    1.6934    0.0000 C   0  0  0  0  0  0  0  0  0  0  0  0
    4.9131    2.5184    0.0000 C   0  0  0  0  0  0  0  0  0  0  0  0
    5.6275    2.9309    0.0000 C   0  0  0  0  0  0  0  0  0  0  0  0
   -0.4125    0.0000    0.0000 Cl  0  5  0  0  0  0  0  0  0  0  0  0
  2  3  2  0  0  0  0
  3  4  1  0  0  0  0
  4  5  2  0  0  0  0
  5  6  1  0  0  0  0
  6  7  2  0  0  0  0
  2  7  1  0  0  0  0
  7  8  1  0  0  0  0
  8  9  1  0  0  0  0
  9 10  2  0  0  0  0
  9 11  1  0  0  0  0
  6 11  1  0  0  0  0
  5 12  1  0  0  0  0
 12 13  1  0  0  0  0
 13 14  1  0  0  0  0
 14 15  1  0  0  0  0
 15 16  1  0  0  0  0
 16 17  1  0  0  0  0
 14 18  1  0  0  0  0
 18 19  1  0  0  0  0
 19 20  1  0  0  0  0
M  CHG  2   1   1  21  -1
M  END
>  <Name>
Ropinirole HCl

>  <CAS>
91374-20-8

>  <Formula>
C16H24N2O.HCl

>  <MolWt>
296.84 

>  <Bioactivity>
Ropinirole a selective dopamine D2 receptors agonist with Ki of 29 nM.

>  <Pathways>
Neuroscience

>  <Target>
Dopamine Receptor antagonist

>  <Receptor>
D(2)dopamine receptor

>  <Reference>
1. Eden RJ, et al. Pharmacol Biochem Behav, 1991, 38(1), 147-154.

$$$$
T2558
  Mrv1561503291623562D          

 19 21  0  0  1  0            999 V2000
   -0.3984   -2.1500    0.0000 C   0  0  2  0  0  0  0  0  0  0  0  0
   -0.1435   -1.3654    0.0000 N   0  0  0  0  0  0  0  0  0  0  0  0
    0.6411   -1.1104    0.0000 C   0  0  0  0  0  0  0  0  0  0  0  0
    0.6411   -0.2854    0.0000 C   0  0  0  0  0  0  0  0  0  0  0  0
    1.3556    0.1271    0.0000 C   0  0  0  0  0  0  0  0  0  0  0  0
    2.0701   -0.2854    0.0000 N   0  0  0  0  0  0  0  0  0  0  0  0
    2.0701   -1.1104    0.0000 C   0  0  0  0  0  0  0  0  0  0  0  0
    1.3556   -1.5229    0.0000 N   0  0  0  0  0  0  0  0  0  0  0  0
    2.7845   -1.5229    0.0000 Cl  0  0  0  0  0  0  0  0  0  0  0  0
    1.3556    0.9521    0.0000 N   0  0  0  0  0  0  0  0  0  0  0  0
   -0.1435   -0.0305    0.0000 N   0  0  0  0  0  0  0  0  0  0  0  0
   -0.6284   -0.6979    0.0000 C   0  0  0  0  0  0  0  0  0  0  0  0
    0.0865   -2.8174    0.0000 O   0  0  0  0  0  0  0  0  0  0  0  0
   -0.3984   -3.4849    0.0000 C   0  0  2  0  0  0  0  0  0  0  0  0
   -0.1435   -4.2695    0.0000 C   0  0  0  0  0  0  0  0  0  0  0  0
    0.6635   -4.4410    0.0000 O   0  0  0  0  0  0  0  0  0  0  0  0
   -1.1831   -3.2299    0.0000 C   0  0  2  0  0  0  0  0  0  0  0  0
   -1.1831   -2.4049    0.0000 C   0  0  0  0  0  0  0  0  0  0  0  0
   -1.8505   -3.7149    0.0000 O   0  0  0  0  0  0  0  0  0  0  0  0
  1  2  1  6  0  0  0
  2  3  1  0  0  0  0
  3  4  2  0  0  0  0
  4  5  1  0  0  0  0
  5  6  2  0  0  0  0
  6  7  1  0  0  0  0
  7  8  2  0  0  0  0
  3  8  1  0  0  0  0
  7  9  1  0  0  0  0
  5 10  1  0  0  0  0
  4 11  1  0  0  0  0
 11 12  2  0  0  0  0
  2 12  1  0  0  0  0
  1 13  1  0  0  0  0
 13 14  1  0  0  0  0
 14 15  1  6  0  0  0
 15 16  1  0  0  0  0
 14 17  1  0  0  0  0
 17 18  1  0  0  0  0
  1 18  1  0  0  0  0
 17 19  1  1  0  0  0
M  END
>  <Name>
Cladribine

>  <CAS>
4291-63-8

>  <Formula>
C10H12ClN5O3

>  <MolWt>
285.69 

>  <Bioactivity>
Cladribine is an adenosine deaminase inhibitor used to treat hairy cell leukemia and multiple sclerosis.

>  <Pathways>
DNA Damage/DNA Repair

>  <Target>
DNA/RNA Synthesis inhibitor

>  <Receptor>
Adenosine deaminase

>  <Reference>
1. Kopadze T, et al. Eur J Neurol. 2009, 16(3), 409-412.

$$$$
22427-39-0
  Mrv1561503291623562D          

 56 61  0  0  1  0            999 V2000
    2.8705    0.0722    0.0000 C   0  0  1  0  0  0  0  0  0  0  0  0
    3.6826    0.2174    0.0000 C   0  0  1  0  0  0  0  0  0  0  0  0
    3.9629    0.9934    0.0000 C   0  0  1  0  0  0  0  0  0  0  0  0
    4.7875    0.9666    0.0000 C   0  0  1  0  0  0  0  0  0  0  0  0
    5.2939    1.6179    0.0000 C   0  0  1  0  0  0  0  0  0  0  0  0
    5.9452    1.1115    0.0000 O   0  0  0  0  0  0  0  0  0  0  0  0
    6.7094    1.4224    0.0000 C   0  0  2  0  0  0  0  0  0  0  0  0
    6.8222    2.2397    0.0000 O   0  0  0  0  0  0  0  0  0  0  0  0
    7.5864    2.5506    0.0000 C   0  0  1  0  0  0  0  0  0  0  0  0
    8.2377    2.0442    0.0000 C   0  0  1  0  0  0  0  0  0  0  0  0
    9.0019    2.3551    0.0000 O   0  0  0  0  0  0  0  0  0  0  0  0
    8.1249    1.2270    0.0000 C   0  0  2  0  0  0  0  0  0  0  0  0
    8.7762    0.7206    0.0000 O   0  0  0  0  0  0  0  0  0  0  0  0
    7.3607    0.9161    0.0000 C   0  0  1  0  0  0  0  0  0  0  0  0
    7.2479    0.0988    0.0000 O   0  0  0  0  0  0  0  0  0  0  0  0
    7.6993    3.3678    0.0000 C   0  0  0  0  0  0  0  0  0  0  0  0
    8.4634    3.6787    0.0000 O   0  0  0  0  0  0  0  0  0  0  0  0
    5.8002    2.2692    0.0000 C   0  0  0  0  0  0  0  0  0  0  0  0
    5.4893    3.0334    0.0000 C   0  0  0  0  0  0  0  0  0  0  0  0
    4.6721    3.1462    0.0000 C   0  0  0  0  0  0  0  0  0  0  0  0
    4.3612    3.9104    0.0000 C   0  0  0  0  0  0  0  0  0  0  0  0
    4.8675    4.5618    0.0000 C   0  0  0  0  0  0  0  0  0  0  0  0
    3.5439    4.0233    0.0000 C   0  0  0  0  0  0  0  0  0  0  0  0
    4.6425    2.1242    0.0000 C   0  0  0  0  0  0  0  0  0  0  0  0
    5.0168    0.1741    0.0000 C   0  0  0  0  0  0  0  0  0  0  0  0
    4.3340   -0.2889    0.0000 C   0  0  0  0  0  0  0  0  0  0  0  0
    3.4311    1.6241    0.0000 C   0  0  2  0  0  0  0  0  0  0  0  0
    3.7114    2.4000    0.0000 O   0  0  0  0  0  0  0  0  0  0  0  0
    2.6190    1.4789    0.0000 C   0  0  0  0  0  0  0  0  0  0  0  0
    2.3387    0.7029    0.0000 C   0  0  2  0  0  0  0  0  0  0  0  0
    1.5266    0.5577    0.0000 C   0  0  2  0  0  0  0  0  0  0  0  0
    1.2463   -0.2182    0.0000 C   0  0  1  0  0  0  0  0  0  0  0  0
    1.7781   -0.8489    0.0000 C   0  0  1  0  0  0  0  0  0  0  0  0
    1.4978   -1.6248    0.0000 O   0  0  0  0  0  0  0  0  0  0  0  0
    2.0296   -2.2555    0.0000 C   0  0  2  0  0  0  0  0  0  0  0  0
    2.8417   -2.1103    0.0000 O   0  0  0  0  0  0  0  0  0  0  0  0
    3.3736   -2.7410    0.0000 C   0  0  1  0  0  0  0  0  0  0  0  0
    3.0933   -3.5170    0.0000 C   0  0  1  0  0  0  0  0  0  0  0  0
    3.6251   -4.1477    0.0000 O   0  0  0  0  0  0  0  0  0  0  0  0
    2.2812   -3.6622    0.0000 C   0  0  2  0  0  0  0  0  0  0  0  0
    2.0009   -4.4381    0.0000 O   0  0  0  0  0  0  0  0  0  0  0  0
    1.7493   -3.0315    0.0000 C   0  0  1  0  0  0  0  0  0  0  0  0
    0.9372   -3.1767    0.0000 O   0  0  0  0  0  0  0  0  0  0  0  0
    4.1857   -2.5958    0.0000 C   0  0  0  0  0  0  0  0  0  0  0  0
    4.7175   -3.2265    0.0000 O   0  0  0  0  0  0  0  0  0  0  0  0
    2.5902   -0.7037    0.0000 C   0  0  0  0  0  0  0  0  0  0  0  0
    0.4342   -0.3634    0.0000 C   0  0  0  0  0  0  0  0  0  0  0  0
   -0.0976    0.2673    0.0000 C   0  0  1  0  0  0  0  0  0  0  0  0
   -0.9098    0.1221    0.0000 O   0  0  0  0  0  0  0  0  0  0  0  0
    0.1827    1.0432    0.0000 C   0  0  0  0  0  0  0  0  0  0  0  0
    0.9948    1.1884    0.0000 C   0  0  0  0  0  0  0  0  0  0  0  0
    0.5510   -1.1801    0.0000 C   0  0  0  0  0  0  0  0  0  0  0  0
   -0.1776   -0.9169    0.0000 C   0  0  0  0  0  0  0  0  0  0  0  0
    1.8069    1.3336    0.0000 C   0  0  0  0  0  0  0  0  0  0  0  0
    3.4850   -0.5835    0.0000 C   0  0  0  0  0  0  0  0  0  0  0  0
    3.1814   -0.6920    0.0000 C   0  0  0  0  0  0  0  0  0  0  0  0
  1  2  1  0  0  0  0
  2  3  1  0  0  0  0
  3  4  1  0  0  0  0
  4  5  1  1  0  0  0
  5  6  1  1  0  0  0
  7  6  1  6  0  0  0
  7  8  1  0  0  0  0
  8  9  1  0  0  0  0
  9 10  1  0  0  0  0
 10 11  1  1  0  0  0
 10 12  1  0  0  0  0
 12 13  1  6  0  0  0
 12 14  1  0  0  0  0
  7 14  1  0  0  0  0
 14 15  1  1  0  0  0
  9 16  1  6  0  0  0
 16 17  1  0  0  0  0
  5 18  1  0  0  0  0
 18 19  1  0  0  0  0
 19 20  1  0  0  0  0
 20 21  2  0  0  0  0
 21 22  1  0  0  0  0
 21 23  1  0  0  0  0
  5 24  1  1  0  0  0
  4 25  1  0  0  0  0
 25 26  1  0  0  0  0
  2 26  1  0  0  0  0
  3 27  1  6  0  0  0
 27 28  1  1  0  0  0
 27 29  1  0  0  0  0
 30 29  1  1  0  0  0
  1 30  1  0  0  0  0
 30 31  1  0  0  0  0
 31 32  1  0  0  0  0
 32 33  1  0  0  0  0
 33 34  1  6  0  0  0
 35 34  1  6  0  0  0
 35 36  1  0  0  0  0
 36 37  1  0  0  0  0
 37 38  1  0  0  0  0
 38 39  1  1  0  0  0
 38 40  1  0  0  0  0
 40 41  1  6  0  0  0
 40 42  1  0  0  0  0
 35 42  1  0  0  0  0
 42 43  1  1  0  0  0
 37 44  1  6  0  0  0
 44 45  1  0  0  0  0
 33 46  1  0  0  0  0
  1 46  1  0  0  0  0
 32 47  1  1  0  0  0
 47 48  1  0  0  0  0
 48 49  1  1  0  0  0
 48 50  1  0  0  0  0
 50 51  1  0  0  0  0
 31 51  1  0  0  0  0
 47 52  1  0  0  0  0
 47 53  1  0  0  0  0
 31 54  1  1  0  0  0
  2 55  1  6  0  0  0
  1 56  1  1  0  0  0
M  END
>  <Name>
Ginsenoside Rg1

>  <CAS>
22427-39-0

>  <Formula>
C42H72O14

>  <MolWt>
801.01 

>  <Bioactivity>
Ginsenosides are a class of steroid glycosides, and triterpene saponins, found exclusively in the plant genus Panax (ginseng). Ginsenosides have been the target of research, as they are viewed as the active compounds behind the claims of ginseng's efficacy. Because ginsenosides appear to affect multiple pathways, their effects are complex and difficult to isolate. Rg1 Appears to be most abundant in Panax ginseng (Chinese/Korean Ginseng). It improves spatial learning and increase hippocampal synaptophysin level in mice, plus demonstrates estrogen-like activity.

>  <Pathways>
Others

>  <Target>
Others

>  <Receptor>
Others

>  <Reference>
1. Kwok HH, et al. Toxicol Appl Pharmacol. 2015 Sep 15;287(3):276-83.

$$$$
265121-04-8
  Mrv1561503291623562D          

 67 68  0  0  0  0            999 V2000
   -1.9944    0.5997    0.0000 C   0  0  0  0  0  0  0  0  0  0  0  0
   -1.2799    1.0122    0.0000 C   0  0  0  0  0  0  0  0  0  0  0  0
   -1.2799    1.8372    0.0000 C   0  0  0  0  0  0  0  0  0  0  0  0
   -1.9944    2.2497    0.0000 C   0  0  0  0  0  0  0  0  0  0  0  0
   -1.9944    3.0747    0.0000 C   0  0  0  0  0  0  0  0  0  0  0  0
   -1.2799    3.4872    0.0000 C   0  0  0  0  0  0  0  0  0  0  0  0
   -0.5654    3.0747    0.0000 C   0  0  0  0  0  0  0  0  0  0  0  0
   -0.5654    2.2497    0.0000 C   0  0  0  0  0  0  0  0  0  0  0  0
    0.1490    3.4872    0.0000 C   0  0  0  0  0  0  0  0  0  0  0  0
    0.8635    3.8997    0.0000 F   0  0  0  0  0  0  0  0  0  0  0  0
   -0.2635    4.2016    0.0000 F   0  0  0  0  0  0  0  0  0  0  0  0
    0.5615    2.7727    0.0000 F   0  0  0  0  0  0  0  0  0  0  0  0
   -2.7088    3.4872    0.0000 C   0  0  0  0  0  0  0  0  0  0  0  0
   -3.4233    3.8997    0.0000 F   0  0  0  0  0  0  0  0  0  0  0  0
   -2.2963    4.2016    0.0000 F   0  0  0  0  0  0  0  0  0  0  0  0
   -3.1213    2.7727    0.0000 F   0  0  0  0  0  0  0  0  0  0  0  0
   -0.5654    0.5997    0.0000 O   0  0  0  0  0  0  0  0  0  0  0  0
   -0.5654   -0.2253    0.0000 C   0  0  0  0  0  0  0  0  0  0  0  0
    0.1490   -0.6378    0.0000 C   0  0  0  0  0  0  0  0  0  0  0  0
    0.1490   -1.4628    0.0000 N   0  0  0  0  0  0  0  0  0  0  0  0
   -0.5654   -1.8753    0.0000 C   0  0  0  0  0  0  0  0  0  0  0  0
   -1.2799   -1.4628    0.0000 C   0  0  0  0  0  0  0  0  0  0  0  0
   -1.2799   -0.6378    0.0000 O   0  0  0  0  0  0  0  0  0  0  0  0
    0.8635   -1.8753    0.0000 C   0  0  0  0  0  0  0  0  0  0  0  0
    0.8635   -2.7003    0.0000 C   0  0  0  0  0  0  0  0  0  0  0  0
    0.1961   -3.1853    0.0000 N   0  0  0  0  0  0  0  0  0  0  0  0
    0.4510   -3.9699    0.0000 C   0  0  0  0  0  0  0  0  0  0  0  0
   -0.0339   -4.6373    0.0000 O   0  0  0  0  0  0  0  0  0  0  0  0
    1.2760   -3.9699    0.0000 N   0  0  0  0  0  0  0  0  0  0  0  0
    1.5310   -3.1853    0.0000 N   0  0  0  0  0  0  0  0  0  0  0  0
    1.7609   -4.6373    0.0000 P   0  0  0  0  0  0  0  0  0  0  0  0
    2.2459   -5.3048    0.0000 O   0  0  0  0  0  0  0  0  0  0  0  0
    2.4284   -4.1524    0.0000 O   0  0  0  0  0  0  0  0  0  0  0  0
    1.0935   -5.1222    0.0000 O   0  0  0  0  0  0  0  0  0  0  0  0
    0.8635   -0.2253    0.0000 C   0  0  0  0  0  0  0  0  0  0  0  0
    0.8635    0.5997    0.0000 C   0  0  0  0  0  0  0  0  0  0  0  0
    1.5780    1.0122    0.0000 C   0  0  0  0  0  0  0  0  0  0  0  0
    2.2925    0.5997    0.0000 C   0  0  0  0  0  0  0  0  0  0  0  0
    2.2925   -0.2253    0.0000 C   0  0  0  0  0  0  0  0  0  0  0  0
    1.5780   -0.6378    0.0000 C   0  0  0  0  0  0  0  0  0  0  0  0
    3.0069    1.0122    0.0000 F   0  0  0  0  0  0  0  0  0  0  0  0
    5.3641    0.1904    0.0000 C   0  0  0  0  0  0  0  0  0  0  0  0
    6.0785   -0.2221    0.0000 N   0  0  0  0  0  0  0  0  0  0  0  0
    6.7930    0.1904    0.0000 C   0  0  0  0  0  0  0  0  0  0  0  0
    7.5075   -0.2221    0.0000 C   0  0  0  0  0  0  0  0  0  0  0  0
    8.2220    0.1904    0.0000 C   0  0  0  0  0  0  0  0  0  0  0  0
    8.9364   -0.2221    0.0000 C   0  0  0  0  0  0  0  0  0  0  0  0
    9.6509    0.1904    0.0000 C   0  0  0  0  0  0  0  0  0  0  0  0
   10.3654   -0.2221    0.0000 C   0  0  0  0  0  0  0  0  0  0  0  0
   11.0798    0.1904    0.0000 O   0  0  0  0  0  0  0  0  0  0  0  0
    9.6509    1.0154    0.0000 O   0  0  0  0  0  0  0  0  0  0  0  0
    8.9364   -1.0471    0.0000 O   0  0  0  0  0  0  0  0  0  0  0  0
    8.2220    1.0154    0.0000 O   0  0  0  0  0  0  0  0  0  0  0  0
    7.5075   -1.0471    0.0000 O   0  0  0  0  0  0  0  0  0  0  0  0
   -2.9678   -7.7798    0.0000 C   0  0  0  0  0  0  0  0  0  0  0  0
   -2.2533   -8.1923    0.0000 N   0  0  0  0  0  0  0  0  0  0  0  0
   -1.5389   -7.7798    0.0000 C   0  0  0  0  0  0  0  0  0  0  0  0
   -0.8244   -8.1923    0.0000 C   0  0  0  0  0  0  0  0  0  0  0  0
   -0.1099   -7.7798    0.0000 C   0  0  0  0  0  0  0  0  0  0  0  0
    0.6046   -8.1923    0.0000 C   0  0  0  0  0  0  0  0  0  0  0  0
    1.3190   -7.7798    0.0000 C   0  0  0  0  0  0  0  0  0  0  0  0
    2.0335   -8.1923    0.0000 C   0  0  0  0  0  0  0  0  0  0  0  0
    2.7480   -7.7798    0.0000 O   0  0  0  0  0  0  0  0  0  0  0  0
    1.3190   -6.9548    0.0000 O   0  0  0  0  0  0  0  0  0  0  0  0
    0.6046   -9.0173    0.0000 O   0  0  0  0  0  0  0  0  0  0  0  0
   -0.1099   -6.9548    0.0000 O   0  0  0  0  0  0  0  0  0  0  0  0
   -0.8244   -9.0173    0.0000 O   0  0  0  0  0  0  0  0  0  0  0  0
  1  2  1  0  0  0  0
  2  3  1  0  0  0  0
  3  4  2  0  0  0  0
  4  5  1  0  0  0  0
  5  6  2  0  0  0  0
  6  7  1  0  0  0  0
  7  8  2  0  0  0  0
  3  8  1  0  0  0  0
  7  9  1  0  0  0  0
  9 10  1  0  0  0  0
  9 11  1  0  0  0  0
  9 12  1  0  0  0  0
  5 13  1  0  0  0  0
 13 14  1  0  0  0  0
 13 15  1  0  0  0  0
 13 16  1  0  0  0  0
  2 17  1  0  0  0  0
 17 18  1  0  0  0  0
 18 19  1  0  0  0  0
 19 20  1  0  0  0  0
 20 21  1  0  0  0  0
 21 22  1  0  0  0  0
 22 23  1  0  0  0  0
 18 23  1  0  0  0  0
 20 24  1  0  0  0  0
 24 25  1  0  0  0  0
 25 26  2  0  0  0  0
 26 27  1  0  0  0  0
 27 28  2  0  0  0  0
 27 29  1  0  0  0  0
 29 30  1  0  0  0  0
 25 30  1  0  0  0  0
 29 31  1  0  0  0  0
 31 32  2  0  0  0  0
 31 33  1  0  0  0  0
 31 34  1  0  0  0  0
 19 35  1  0  0  0  0
 35 36  2  0  0  0  0
 36 37  1  0  0  0  0
 37 38  2  0  0  0  0
 38 39  1  0  0  0  0
 39 40  2  0  0  0  0
 35 40  1  0  0  0  0
 38 41  1  0  0  0  0
 42 43  1  0  0  0  0
 43 44  1  0  0  0  0
 44 45  1  0  0  0  0
 45 46  1  0  0  0  0
 46 47  1  0  0  0  0
 47 48  1  0  0  0  0
 48 49  1  0  0  0  0
 49 50  1  0  0  0  0
 48 51  1  0  0  0  0
 47 52  1  0  0  0  0
 46 53  1  0  0  0  0
 45 54  1  0  0  0  0
 55 56  1  0  0  0  0
 56 57  1  0  0  0  0
 57 58  1  0  0  0  0
 58 59  1  0  0  0  0
 59 60  1  0  0  0  0
 60 61  1  0  0  0  0
 61 62  1  0  0  0  0
 62 63  1  0  0  0  0
 61 64  1  0  0  0  0
 60 65  1  0  0  0  0
 59 66  1  0  0  0  0
 58 67  1  0  0  0  0
M  END
>  <Name>
Fosaprepitant dimeglumine

>  <CAS>
265121-04-8

>  <Formula>
C37H56F7N6O16P

>  <MolWt>
1004.83 

>  <Bioactivity>
Fosaprepitant dimeglumine(MK-0517) is a neurokinin-1 receptor antagonist for the prevention of chemotherapy-induced nausea and vomiting.

>  <Pathways>
Neuroscience

>  <Target>
Substance P antagonist

>  <Receptor>
Neurokinin-1 receptor 

>  <Reference>
1. Navari RM. Expert Opin Investig Drugs, 2007, 16(12), 1977-1985.

$$$$
T1926
  Mrv1561503291623562D          

 35 38  0  0  0  0            999 V2000
    5.7158   -4.1250    0.0000 C   0  0  0  0  0  0  0  0  0  0  0  0
    5.7158   -4.9500    0.0000 C   0  0  0  0  0  0  0  0  0  0  0  0
    6.4302   -5.3625    0.0000 C   0  0  0  0  0  0  0  0  0  0  0  0
    6.4302   -6.1875    0.0000 N   0  0  0  0  0  0  0  0  0  0  0  0
    5.7158   -6.6000    0.0000 C   0  0  0  0  0  0  0  0  0  0  0  0
    5.0013   -6.1875    0.0000 C   0  0  0  0  0  0  0  0  0  0  0  0
    5.0013   -5.3625    0.0000 O   0  0  0  0  0  0  0  0  0  0  0  0
    4.2868   -6.6000    0.0000 C   0  0  0  0  0  0  0  0  0  0  0  0
    7.1447   -6.6000    0.0000 C   0  0  0  0  0  0  0  0  0  0  0  0
    7.8592   -6.1875    0.0000 N   0  0  0  0  0  0  0  0  0  0  0  0
    8.5737   -6.6000    0.0000 C   0  0  0  0  0  0  0  0  0  0  0  0
    8.5737   -7.4250    0.0000 C   0  0  0  0  0  0  0  0  0  0  0  0
    7.8592   -7.8375    0.0000 C   0  0  0  0  0  0  0  0  0  0  0  0
    7.1447   -7.4250    0.0000 C   0  0  0  0  0  0  0  0  0  0  0  0
    9.2881   -7.8375    0.0000 N   0  0  0  0  0  0  0  0  0  0  0  0
    9.2881   -8.6625    0.0000 C   0  0  0  0  0  0  0  0  0  0  0  0
    8.5737   -9.0750    0.0000 O   0  0  0  0  0  0  0  0  0  0  0  0
   10.0026   -9.0750    0.0000 C   0  0  0  0  0  0  0  0  0  0  0  0
   10.7171   -8.6625    0.0000 C   0  0  0  0  0  0  0  0  0  0  0  0
   11.4315   -9.0750    0.0000 C   0  0  0  0  0  0  0  0  0  0  0  0
   11.4315   -9.9000    0.0000 C   0  0  0  0  0  0  0  0  0  0  0  0
   10.7171  -10.3125    0.0000 C   0  0  0  0  0  0  0  0  0  0  0  0
   10.0026   -9.9000    0.0000 C   0  0  0  0  0  0  0  0  0  0  0  0
    9.2881  -10.3125    0.0000 C   0  0  0  0  0  0  0  0  0  0  0  0
   10.7171  -11.1375    0.0000 C   0  0  0  0  0  0  0  0  0  0  0  0
   11.4315  -11.5500    0.0000 C   0  0  0  0  0  0  0  0  0  0  0  0
   11.4315  -12.3750    0.0000 C   0  0  0  0  0  0  0  0  0  0  0  0
   10.7171  -12.7875    0.0000 C   0  0  0  0  0  0  0  0  0  0  0  0
   10.0026  -12.3750    0.0000 C   0  0  0  0  0  0  0  0  0  0  0  0
   10.0026  -11.5500    0.0000 C   0  0  0  0  0  0  0  0  0  0  0  0
   10.7171  -13.6125    0.0000 O   0  0  0  0  0  0  0  0  0  0  0  0
   11.4315  -14.0250    0.0000 C   0  0  0  0  0  0  0  0  0  0  0  0
   12.1460  -14.4375    0.0000 F   0  0  0  0  0  0  0  0  0  0  0  0
   11.0190  -14.7395    0.0000 F   0  0  0  0  0  0  0  0  0  0  0  0
   11.8440  -13.3105    0.0000 F   0  0  0  0  0  0  0  0  0  0  0  0
  1  2  1  0  0  0  0
  2  3  1  0  0  0  0
  3  4  1  0  0  0  0
  4  5  1  0  0  0  0
  5  6  1  0  0  0  0
  6  7  1  0  0  0  0
  2  7  1  0  0  0  0
  6  8  1  0  0  0  0
  4  9  1  0  0  0  0
  9 10  2  0  0  0  0
 10 11  1  0  0  0  0
 11 12  2  0  0  0  0
 12 13  1  0  0  0  0
 13 14  2  0  0  0  0
  9 14  1  0  0  0  0
 12 15  1  0  0  0  0
 15 16  1  0  0  0  0
 16 17  2  0  0  0  0
 16 18  1  0  0  0  0
 18 19  2  0  0  0  0
 19 20  1  0  0  0  0
 20 21  2  0  0  0  0
 21 22  1  0  0  0  0
 22 23  2  0  0  0  0
 18 23  1  0  0  0  0
 23 24  1  0  0  0  0
 22 25  1  0  0  0  0
 25 26  2  0  0  0  0
 26 27  1  0  0  0  0
 27 28  2  0  0  0  0
 28 29  1  0  0  0  0
 29 30  2  0  0  0  0
 25 30  1  0  0  0  0
 28 31  1  0  0  0  0
 31 32  1  0  0  0  0
 32 33  1  0  0  0  0
 32 34  1  0  0  0  0
 32 35  1  0  0  0  0
M  END
>  <Name>
LDE225 (NVP-LDE225,Erismodegib)

>  <CAS>
956697-53-3

>  <Formula>
C26H26F3N3O3

>  <MolWt>
485.50 

>  <Bioactivity>
LDE225 (NVP-LDE225; Erismodegib) is a Smoothened (Smo) antagonist, inhibiting Hedgehog (Hh) signaling with IC50 of 1.3 nM (mouse) and 2.5 nM (human), respectively.

>  <Pathways>
Stem Cell

>  <Target>
Hedgehog/Smoothened Receptor antagonist

>  <Receptor>
Hedgehog/Smoothened Receptor

>  <Reference>
1. Fendrich V, et al. Ann Surg, 2011, 254(5), 818-23.

$$$$
23651-95-8
  Mrv1561503291623562D          

 15 15  0  0  0  0            999 V2000
    1.4289    0.8250    0.0000 C   0  0  0  0  0  0  0  0  0  0  0  0
    1.4289    0.0000    0.0000 C   0  0  0  0  0  0  0  0  0  0  0  0
    0.7145   -0.4125    0.0000 C   0  0  0  0  0  0  0  0  0  0  0  0
   -0.0000    0.0000    0.0000 C   0  0  0  0  0  0  0  0  0  0  0  0
   -0.0000    0.8250    0.0000 C   0  0  0  0  0  0  0  0  0  0  0  0
    0.7145    1.2375    0.0000 C   0  0  0  0  0  0  0  0  0  0  0  0
    0.7145    2.0625    0.0000 C   0  0  0  0  0  0  0  0  0  0  0  0
    0.0000    2.4750    0.0000 C   0  0  0  0  0  0  0  0  0  0  0  0
    0.0000    3.3000    0.0000 C   0  0  0  0  0  0  0  0  0  0  0  0
   -0.7145    3.7125    0.0000 O   0  0  0  0  0  0  0  0  0  0  0  0
    0.7145    3.7125    0.0000 O   0  0  0  0  0  0  0  0  0  0  0  0
   -0.7145    2.0625    0.0000 N   0  0  0  0  0  0  0  0  0  0  0  0
    1.4289    2.4750    0.0000 O   0  0  0  0  0  0  0  0  0  0  0  0
    0.7145   -1.2375    0.0000 O   0  0  0  0  0  0  0  0  0  0  0  0
    2.1434   -0.4125    0.0000 O   0  0  0  0  0  0  0  0  0  0  0  0
  1  2  2  0  0  0  0
  2  3  1  0  0  0  0
  3  4  2  0  0  0  0
  4  5  1  0  0  0  0
  5  6  2  0  0  0  0
  1  6  1  0  0  0  0
  6  7  1  0  0  0  0
  7  8  1  0  0  0  0
  8  9  1  0  0  0  0
  9 10  1  0  0  0  0
  9 11  2  0  0  0  0
  8 12  1  0  0  0  0
  7 13  1  0  0  0  0
  3 14  1  0  0  0  0
  2 15  1  0  0  0  0
M  END
>  <Name>
Droxidopa

>  <CAS>
23651-95-8

>  <Formula>
C9H11NO5

>  <MolWt>
213.19 

>  <Bioactivity>
Droxidopa is a psychoactive drug and acts as a prodrug to the neurotransmitters norepinephrine (noradrenaline) and epinephrine (adrenaline).

>  <Pathways>
GPCR/G Protein

>  <Target>
Adrenergic Receptor antagonist

>  <Receptor>
Adrenergic Receptor

>  <Reference>
1. Mathias CJ. Clin Auton Res, 2008, 18 Suppl 1, 25-29.

$$$$
113775-47-6
  Mrv1561503291623562D          

 15 16  0  0  1  0            999 V2000
   -0.6078   -0.4741    0.0000 C   0  0  1  0  0  0  0  0  0  0  0  0
   -1.3222   -0.0616    0.0000 C   0  0  0  0  0  0  0  0  0  0  0  0
   -2.0367   -0.4741    0.0000 C   0  0  0  0  0  0  0  0  0  0  0  0
   -2.7512   -0.0616    0.0000 C   0  0  0  0  0  0  0  0  0  0  0  0
   -2.7512    0.7634    0.0000 C   0  0  0  0  0  0  0  0  0  0  0  0
   -2.0367    1.1759    0.0000 C   0  0  0  0  0  0  0  0  0  0  0  0
   -1.3222    0.7634    0.0000 C   0  0  0  0  0  0  0  0  0  0  0  0
   -0.6078    1.1759    0.0000 C   0  0  0  0  0  0  0  0  0  0  0  0
   -2.0367    2.0009    0.0000 C   0  0  0  0  0  0  0  0  0  0  0  0
   -0.6078   -1.2991    0.0000 C   0  0  0  0  0  0  0  0  0  0  0  0
    0.0597   -1.7840    0.0000 C   0  0  0  0  0  0  0  0  0  0  0  0
   -0.1953   -2.5687    0.0000 N   0  0  0  0  0  0  0  0  0  0  0  0
   -1.0203   -2.5687    0.0000 C   0  0  0  0  0  0  0  0  0  0  0  0
   -1.2752   -1.7840    0.0000 N   0  0  0  0  0  0  0  0  0  0  0  0
    0.1067   -0.0616    0.0000 C   0  0  0  0  0  0  0  0  0  0  0  0
  1  2  1  0  0  0  0
  2  3  2  0  0  0  0
  3  4  1  0  0  0  0
  4  5  2  0  0  0  0
  5  6  1  0  0  0  0
  6  7  2  0  0  0  0
  2  7  1  0  0  0  0
  7  8  1  0  0  0  0
  6  9  1  0  0  0  0
  1 10  1  0  0  0  0
 10 11  2  0  0  0  0
 11 12  1  0  0  0  0
 12 13  2  0  0  0  0
 13 14  1  0  0  0  0
 10 14  1  0  0  0  0
  1 15  1  6  0  0  0
M  END
>  <Name>
Dexmedetomidine

>  <CAS>
113775-47-6

>  <Formula>
C13H16N2

>  <MolWt>
200.28 

>  <Bioactivity>
Dexmedetomidine is a sedative medication used by intensive care units and anesthetists.

>  <Pathways>
GPCR/G Protein

>  <Target>
Adrenergic Receptor agonist

>  <Receptor>
?2 adrenergic receptor

>  <Reference>
1. Virtanen R, et al. Eur J Pharmacol, 1988, 150(1-2), 9-14.

$$$$
T1890
  Mrv1561503291623562D          

 26 27  0  0  0  0            999 V2000
   -5.3525    0.2283    0.0000 C   0  0  0  0  0  0  0  0  0  0  0  0
   -4.5679   -0.0267    0.0000 C   0  0  0  0  0  0  0  0  0  0  0  0
   -4.3964   -0.8336    0.0000 C   0  0  0  0  0  0  0  0  0  0  0  0
   -3.6118   -1.0886    0.0000 C   0  0  0  0  0  0  0  0  0  0  0  0
   -3.4402   -1.8955    0.0000 C   0  0  0  0  0  0  0  0  0  0  0  0
   -3.9923   -2.5086    0.0000 N   0  0  0  0  0  0  0  0  0  0  0  0
   -3.5798   -3.2231    0.0000 C   0  0  0  0  0  0  0  0  0  0  0  0
   -2.7728   -3.0516    0.0000 C   0  0  0  0  0  0  0  0  0  0  0  0
   -2.6866   -2.2311    0.0000 N   0  0  0  0  0  0  0  0  0  0  0  0
   -1.9721   -1.8186    0.0000 C   0  0  0  0  0  0  0  0  0  0  0  0
   -1.9721   -0.9936    0.0000 C   0  0  0  0  0  0  0  0  0  0  0  0
   -1.2576   -0.5811    0.0000 N   0  0  0  0  0  0  0  0  0  0  0  0
   -1.2576    0.2439    0.0000 C   0  0  0  0  0  0  0  0  0  0  0  0
   -0.5432    0.6564    0.0000 C   0  0  0  0  0  0  0  0  0  0  0  0
   -0.5432   -0.9936    0.0000 C   0  0  0  0  0  0  0  0  0  0  0  0
   -0.5432   -1.8186    0.0000 C   0  0  0  0  0  0  0  0  0  0  0  0
   -2.2208   -3.6647    0.0000 C   0  0  0  0  0  0  0  0  0  0  0  0
   -2.4757   -4.4493    0.0000 C   0  0  0  0  0  0  0  0  0  0  0  0
   -3.2827   -4.6208    0.0000 C   0  0  0  0  0  0  0  0  0  0  0  0
   -3.8347   -4.0077    0.0000 C   0  0  0  0  0  0  0  0  0  0  0  0
   -3.5376   -5.4054    0.0000 C   0  0  0  0  0  0  0  0  0  0  0  0
   -4.3446   -5.5770    0.0000 C   0  0  0  0  0  0  0  0  0  0  0  0
   -4.5995   -6.3616    0.0000 C   0  0  0  0  0  0  0  0  0  0  0  0
   -4.0475   -6.9747    0.0000 O   0  0  0  0  0  0  0  0  0  0  0  0
   -5.4065   -6.5331    0.0000 N   0  0  0  0  0  0  0  0  0  0  0  0
   -5.6614   -7.3177    0.0000 O   0  0  0  0  0  0  0  0  0  0  0  0
  1  2  1  0  0  0  0
  2  3  1  0  0  0  0
  3  4  1  0  0  0  0
  4  5  1  0  0  0  0
  5  6  2  0  0  0  0
  6  7  1  0  0  0  0
  7  8  2  0  0  0  0
  8  9  1  0  0  0  0
  5  9  1  0  0  0  0
  9 10  1  0  0  0  0
 10 11  1  0  0  0  0
 11 12  1  0  0  0  0
 12 13  1  0  0  0  0
 13 14  1  0  0  0  0
 12 15  1  0  0  0  0
 15 16  1  0  0  0  0
  8 17  1  0  0  0  0
 17 18  2  0  0  0  0
 18 19  1  0  0  0  0
 19 20  2  0  0  0  0
  7 20  1  0  0  0  0
 21 19  1  4  0  0  0
 21 22  2  0  0  0  0
 22 23  1  0  0  0  0
 23 24  2  0  0  0  0
 23 25  1  0  0  0  0
 25 26  1  0  0  0  0
M  END
>  <Name>
Pracinostat (SB939)

>  <CAS>
929016-96-6

>  <Formula>
C20H30N4O2

>  <MolWt>
358.48 

>  <Bioactivity>
Pracinostat(SB939) is a potent pan-HDAC inhibitor with IC50 of 40-140 nM with exception for HDAC6; has no activity against the class III isoenzyme SIRT I.

>  <Pathways>
Chromatin/Epigenetic

>  <Target>
HDAC inhibitor

>  <Receptor>
HDAC1/3/4/5/9/10

>  <Reference>
1. Novotny-Diermayr V, et al. Mol Cancer Ther, 2010, 9(3), 642-652.

$$$$
T2329
  Mrv1561503291623562D          

 31 33  0  0  0  0            999 V2000
    3.5724   -1.2375    0.0000 C   0  0  0  0  0  0  0  0  0  0  0  0
    3.5724   -0.4125    0.0000 C   0  0  0  0  0  0  0  0  0  0  0  0
    4.2868   -0.0000    0.0000 C   0  0  0  0  0  0  0  0  0  0  0  0
    4.2868    0.8250    0.0000 C   0  0  0  0  0  0  0  0  0  0  0  0
    3.5724    1.2375    0.0000 O   0  0  0  0  0  0  0  0  0  0  0  0
    2.8579    0.8250    0.0000 C   0  0  0  0  0  0  0  0  0  0  0  0
    2.8579   -0.0000    0.0000 N   0  0  0  0  0  0  0  0  0  0  0  0
    2.1434   -0.4125    0.0000 C   0  0  0  0  0  0  0  0  0  0  0  0
    2.1434   -1.2375    0.0000 O   0  0  0  0  0  0  0  0  0  0  0  0
    1.4289    0.0000    0.0000 C   0  0  0  0  0  0  0  0  0  0  0  0
    0.7145   -0.4125    0.0000 C   0  0  0  0  0  0  0  0  0  0  0  0
    0.0000   -0.0000    0.0000 C   0  0  0  0  0  0  0  0  0  0  0  0
   -0.7145   -0.4125    0.0000 O   0  0  0  0  0  0  0  0  0  0  0  0
   -0.0000    0.8250    0.0000 C   0  0  0  0  0  0  0  0  0  0  0  0
    0.7145    1.2375    0.0000 C   0  0  0  0  0  0  0  0  0  0  0  0
    1.4289    0.8250    0.0000 N   0  0  0  0  0  0  0  0  0  0  0  0
    2.1434    1.2375    0.0000 C   0  0  0  0  0  0  0  0  0  0  0  0
   -0.7145    1.2375    0.0000 C   0  0  0  0  0  0  0  0  0  0  0  0
   -1.4289    0.8250    0.0000 O   0  0  0  0  0  0  0  0  0  0  0  0
   -0.7145    2.0625    0.0000 N   0  0  0  0  0  0  0  0  0  0  0  0
   -1.4289    2.4750    0.0000 C   0  0  0  0  0  0  0  0  0  0  0  0
   -1.4289    3.3000    0.0000 C   0  0  0  0  0  0  0  0  0  0  0  0
   -2.1434    3.7125    0.0000 C   0  0  0  0  0  0  0  0  0  0  0  0
   -2.1434    4.5375    0.0000 C   0  0  0  0  0  0  0  0  0  0  0  0
   -1.4289    4.9500    0.0000 C   0  0  0  0  0  0  0  0  0  0  0  0
   -0.7145    4.5375    0.0000 C   0  0  0  0  0  0  0  0  0  0  0  0
   -0.7145    3.7125    0.0000 C   0  0  0  0  0  0  0  0  0  0  0  0
   -1.4289    5.7750    0.0000 F   0  0  0  0  0  0  0  0  0  0  0  0
   -2.8579    3.3000    0.0000 F   0  0  0  0  0  0  0  0  0  0  0  0
    0.7145   -1.2375    0.0000 O   0  5  0  0  0  0  0  0  0  0  0  0
    0.7145   -2.0625    0.0000 Na  0  3  0  0  0  0  0  0  0  0  0  0
  1  2  1  0  0  0  0
  2  3  1  0  0  0  0
  3  4  1  0  0  0  0
  4  5  1  0  0  0  0
  5  6  1  0  0  0  0
  6  7  1  0  0  0  0
  2  7  1  0  0  0  0
  7  8  1  0  0  0  0
  8  9  2  0  0  0  0
  8 10  1  0  0  0  0
 10 11  2  0  0  0  0
 11 12  1  0  0  0  0
 12 13  2  0  0  0  0
 12 14  1  0  0  0  0
 14 15  2  0  0  0  0
 15 16  1  0  0  0  0
 10 16  1  0  0  0  0
 16 17  1  0  0  0  0
  6 17  1  0  0  0  0
 14 18  1  0  0  0  0
 18 19  2  0  0  0  0
 18 20  1  0  0  0  0
 20 21  1  0  0  0  0
 21 22  1  0  0  0  0
 22 23  2  0  0  0  0
 23 24  1  0  0  0  0
 24 25  2  0  0  0  0
 25 26  1  0  0  0  0
 26 27  2  0  0  0  0
 22 27  1  0  0  0  0
 25 28  1  0  0  0  0
 23 29  1  0  0  0  0
 11 30  1  0  0  0  0
M  CHG  2  30  -1  31   1
M  END
>  <Name>
Dolutegravir (GSK1349572)

>  <CAS>
1051375-19-9

>  <Formula>
C20H18F2N3NaO5

>  <MolWt>
441.36 

>  <Bioactivity>
Dolutegravir (GSK1349572) is a two-metal-binding HIV integrase inhibitor with IC50 of 2.7 nM in a cell-free assay, modest activity against raltegravir-resistant signature mutants Y143R, Q148K, N155H, and G140S/Q148H.

>  <Pathways>
Proteases/Proteasome; Microbiology & Virology

>  <Target>
Integrase inhibitor

>  <Receptor>
HIV integrase

>  <Reference>
1. Kobayashi M, et al. Antimicrob Agents Chemother. 2011, 55(2), 813-821.

$$$$
T2923
  Mrv1561503291623562D          

 32 34  0  0  0  0            999 V2000
   -1.4534   -4.9848    0.0000 C   0  0  0  0  0  0  0  0  0  0  0  0
   -1.8659   -4.2703    0.0000 C   0  0  0  0  0  0  0  0  0  0  0  0
   -1.4534   -3.5558    0.0000 O   0  0  0  0  0  0  0  0  0  0  0  0
   -1.8659   -2.8414    0.0000 C   0  0  0  0  0  0  0  0  0  0  0  0
   -2.6909   -2.8414    0.0000 C   0  0  0  0  0  0  0  0  0  0  0  0
   -3.1034   -2.1269    0.0000 C   0  0  0  0  0  0  0  0  0  0  0  0
   -2.6909   -1.4124    0.0000 C   0  0  0  0  0  0  0  0  0  0  0  0
   -1.8659   -1.4124    0.0000 C   0  0  0  0  0  0  0  0  0  0  0  0
   -1.4534   -2.1269    0.0000 C   0  0  0  0  0  0  0  0  0  0  0  0
   -1.4534   -0.6979    0.0000 C   0  0  0  0  0  0  0  0  0  0  0  0
   -1.8659    0.0165    0.0000 C   0  0  0  0  0  0  0  0  0  0  0  0
   -1.4534    0.7310    0.0000 S   0  0  0  0  0  0  0  0  0  0  0  0
   -0.7390    0.3185    0.0000 O   0  0  0  0  0  0  0  0  0  0  0  0
   -2.1679    1.1435    0.0000 O   0  0  0  0  0  0  0  0  0  0  0  0
   -1.0409    1.4455    0.0000 C   0  0  0  0  0  0  0  0  0  0  0  0
   -0.6284   -0.6979    0.0000 N   0  0  0  0  0  0  0  0  0  0  0  0
   -0.1435   -1.3654    0.0000 C   0  0  0  0  0  0  0  0  0  0  0  0
   -0.3984   -2.1500    0.0000 O   0  0  0  0  0  0  0  0  0  0  0  0
    0.6411   -1.1104    0.0000 C   0  0  0  0  0  0  0  0  0  0  0  0
    0.6411   -0.2854    0.0000 C   0  0  0  0  0  0  0  0  0  0  0  0
   -0.1435   -0.0305    0.0000 C   0  0  0  0  0  0  0  0  0  0  0  0
   -0.3984    0.7541    0.0000 O   0  0  0  0  0  0  0  0  0  0  0  0
    1.3556    0.1271    0.0000 C   0  0  0  0  0  0  0  0  0  0  0  0
    2.0701   -0.2854    0.0000 C   0  0  0  0  0  0  0  0  0  0  0  0
    2.0701   -1.1104    0.0000 C   0  0  0  0  0  0  0  0  0  0  0  0
    1.3556   -1.5229    0.0000 C   0  0  0  0  0  0  0  0  0  0  0  0
    1.3556    0.9521    0.0000 N   0  0  0  0  0  0  0  0  0  0  0  0
    2.0701    1.3646    0.0000 C   0  0  0  0  0  0  0  0  0  0  0  0
    2.0701    2.1896    0.0000 O   0  0  0  0  0  0  0  0  0  0  0  0
    2.7845    0.9521    0.0000 C   0  0  0  0  0  0  0  0  0  0  0  0
   -3.1034   -3.5558    0.0000 O   0  0  0  0  0  0  0  0  0  0  0  0
   -3.9284   -3.5558    0.0000 C   0  0  0  0  0  0  0  0  0  0  0  0
  1  2  1  0  0  0  0
  2  3  1  0  0  0  0
  3  4  1  0  0  0  0
  4  5  2  0  0  0  0
  5  6  1  0  0  0  0
  6  7  2  0  0  0  0
  7  8  1  0  0  0  0
  8  9  2  0  0  0  0
  4  9  1  0  0  0  0
  8 10  1  0  0  0  0
 10 11  1  0  0  0  0
 11 12  1  0  0  0  0
 12 13  2  0  0  0  0
 12 14  2  0  0  0  0
 12 15  1  0  0  0  0
 10 16  1  0  0  0  0
 16 17  1  0  0  0  0
 17 18  2  0  0  0  0
 17 19  1  0  0  0  0
 19 20  2  0  0  0  0
 20 21  1  0  0  0  0
 16 21  1  0  0  0  0
 21 22  2  0  0  0  0
 20 23  1  0  0  0  0
 23 24  2  0  0  0  0
 24 25  1  0  0  0  0
 25 26  2  0  0  0  0
 19 26  1  0  0  0  0
 23 27  1  0  0  0  0
 27 28  1  0  0  0  0
 28 29  2  0  0  0  0
 28 30  1  0  0  0  0
  5 31  1  0  0  0  0
 31 32  1  0  0  0  0
M  END
>  <Name>
Apremilast (CC-10004)

>  <CAS>
608141-41-9

>  <Formula>
C22H24N2O7S

>  <MolWt>
460.50 

>  <Bioactivity>
Apremilast (CC-10004) is a potent and orally active PDE4 and TNF-? inhibitor with IC50 of 74 nM and 77 nM, respectively.

>  <Pathways>
Metabolism

>  <Target>
PDE inhibitor

>  <Receptor>
PDE4; TNF-?

>  <Reference>
1. Man HW, et al. J Med Chem, 2009,52(6), 1522-1524.

$$$$
482-36-0
  Mrv1561503291623562D          

 33 36  0  0  1  0            999 V2000
   -1.4289    0.8250    0.0000 C   0  0  2  0  0  0  0  0  0  0  0  0
   -1.4289   -0.0000    0.0000 O   0  0  0  0  0  0  0  0  0  0  0  0
   -0.7145   -0.4125    0.0000 C   0  0  0  0  0  0  0  0  0  0  0  0
   -0.7145   -1.2375    0.0000 C   0  0  0  0  0  0  0  0  0  0  0  0
   -0.0000   -1.6500    0.0000 O   0  0  0  0  0  0  0  0  0  0  0  0
    0.7145   -1.2375    0.0000 C   0  0  0  0  0  0  0  0  0  0  0  0
    0.7145   -0.4125    0.0000 C   0  0  0  0  0  0  0  0  0  0  0  0
   -0.0000   -0.0000    0.0000 C   0  0  0  0  0  0  0  0  0  0  0  0
   -0.0000    0.8250    0.0000 O   0  0  0  0  0  0  0  0  0  0  0  0
    1.4289    0.0000    0.0000 C   0  0  0  0  0  0  0  0  0  0  0  0
    2.1434   -0.4125    0.0000 C   0  0  0  0  0  0  0  0  0  0  0  0
    2.1434   -1.2375    0.0000 C   0  0  0  0  0  0  0  0  0  0  0  0
    1.4289   -1.6500    0.0000 C   0  0  0  0  0  0  0  0  0  0  0  0
    2.8579   -1.6500    0.0000 O   0  0  0  0  0  0  0  0  0  0  0  0
    1.4289    0.8250    0.0000 O   0  0  0  0  0  0  0  0  0  0  0  0
   -1.4289   -1.6500    0.0000 C   0  0  0  0  0  0  0  0  0  0  0  0
   -1.4289   -2.4750    0.0000 C   0  0  0  0  0  0  0  0  0  0  0  0
   -2.1434   -2.8875    0.0000 C   0  0  0  0  0  0  0  0  0  0  0  0
   -2.8579   -2.4750    0.0000 C   0  0  0  0  0  0  0  0  0  0  0  0
   -3.5724   -2.8875    0.0000 O   0  0  0  0  0  0  0  0  0  0  0  0
   -2.8579   -1.6500    0.0000 C   0  0  0  0  0  0  0  0  0  0  0  0
   -2.1434   -1.2375    0.0000 C   0  0  0  0  0  0  0  0  0  0  0  0
   -2.1434   -3.7125    0.0000 O   0  0  0  0  0  0  0  0  0  0  0  0
   -0.7145    1.2375    0.0000 O   0  0  0  0  0  0  0  0  0  0  0  0
   -0.7145    2.0625    0.0000 C   0  0  1  0  0  0  0  0  0  0  0  0
   -1.4289    2.4750    0.0000 C   0  0  2  0  0  0  0  0  0  0  0  0
   -1.4289    3.3000    0.0000 O   0  0  0  0  0  0  0  0  0  0  0  0
   -2.1434    2.0625    0.0000 C   0  0  2  0  0  0  0  0  0  0  0  0
   -2.8579    2.4750    0.0000 O   0  0  0  0  0  0  0  0  0  0  0  0
   -2.1434    1.2375    0.0000 C   0  0  1  0  0  0  0  0  0  0  0  0
   -2.8579    0.8250    0.0000 O   0  0  0  0  0  0  0  0  0  0  0  0
   -0.0000    2.4750    0.0000 C   0  0  0  0  0  0  0  0  0  0  0  0
   -0.0000    3.3000    0.0000 O   0  0  0  0  0  0  0  0  0  0  0  0
  1  2  1  1  0  0  0
  2  3  1  0  0  0  0
  3  4  2  0  0  0  0
  4  5  1  0  0  0  0
  5  6  1  0  0  0  0
  6  7  2  0  0  0  0
  7  8  1  0  0  0  0
  3  8  1  0  0  0  0
  8  9  2  0  0  0  0
  7 10  1  0  0  0  0
 10 11  2  0  0  0  0
 11 12  1  0  0  0  0
 12 13  2  0  0  0  0
  6 13  1  0  0  0  0
 12 14  1  0  0  0  0
 10 15  1  0  0  0  0
  4 16  1  0  0  0  0
 16 17  2  0  0  0  0
 17 18  1  0  0  0  0
 18 19  2  0  0  0  0
 19 20  1  0  0  0  0
 19 21  1  0  0  0  0
 21 22  2  0  0  0  0
 16 22  1  0  0  0  0
 18 23  1  0  0  0  0
  1 24  1  0  0  0  0
 24 25  1  0  0  0  0
 25 26  1  0  0  0  0
 26 27  1  1  0  0  0
 26 28  1  0  0  0  0
 28 29  1  1  0  0  0
 28 30  1  0  0  0  0
  1 30  1  0  0  0  0
 30 31  1  6  0  0  0
 25 32  1  1  0  0  0
 32 33  1  0  0  0  0
M  END
>  <Name>
Hyperoside

>  <CAS>
482-36-0

>  <Formula>
C21H20O12

>  <MolWt>
464.38 

>  <Bioactivity>
Extracted from CLUSIACEAE fruit;Suitability:Ethanol,methanol,acetone and pyridine;Store the product in sealed,cool and dry condition

>  <Pathways>
Others

>  <Target>
Others

>  <Receptor>
Others

>  <Reference>
1. Zhang N, et al. PLoS One. 2014 Jul 1;9(7):e98973.

$$$$
503068-34-6
  Mrv1561503291623562D          

 32 33  0  0  0  0            999 V2000
    2.1434   -7.8375    0.0000 C   0  0  0  0  0  0  0  0  0  0  0  0
    2.8579   -7.4250    0.0000 C   0  0  0  0  0  0  0  0  0  0  0  0
    3.5724   -7.8375    0.0000 C   0  0  0  0  0  0  0  0  0  0  0  0
    3.5724   -8.6625    0.0000 C   0  0  0  0  0  0  0  0  0  0  0  0
    2.8579   -9.0750    0.0000 C   0  0  0  0  0  0  0  0  0  0  0  0
    2.1434   -8.6625    0.0000 C   0  0  0  0  0  0  0  0  0  0  0  0
    2.8579   -9.9000    0.0000 Cl  0  0  0  0  0  0  0  0  0  0  0  0
    4.2868   -9.0750    0.0000 C   0  0  0  0  0  0  0  0  0  0  0  0
    5.0013   -8.6625    0.0000 O   0  0  0  0  0  0  0  0  0  0  0  0
    5.7158   -9.0750    0.0000 C   0  0  0  0  0  0  0  0  0  0  0  0
    6.4302   -8.6625    0.0000 C   0  0  0  0  0  0  0  0  0  0  0  0
    7.1447   -9.0750    0.0000 O   0  0  0  0  0  0  0  0  0  0  0  0
    7.8592   -8.6625    0.0000 C   0  0  0  0  0  0  0  0  0  0  0  0
    8.5737   -9.0750    0.0000 C   0  0  0  0  0  0  0  0  0  0  0  0
    9.2881   -8.6625    0.0000 C   0  0  0  0  0  0  0  0  0  0  0  0
   10.0026   -9.0750    0.0000 C   0  0  0  0  0  0  0  0  0  0  0  0
   10.7171   -8.6625    0.0000 C   0  0  0  0  0  0  0  0  0  0  0  0
   11.4315   -9.0750    0.0000 C   0  0  0  0  0  0  0  0  0  0  0  0
   12.1460   -8.6625    0.0000 N   0  0  0  0  0  0  0  0  0  0  0  0
   12.8605   -9.0750    0.0000 C   0  0  0  0  0  0  0  0  0  0  0  0
   13.5749   -8.6625    0.0000 C   0  0  0  0  0  0  0  0  0  0  0  0
   14.2894   -9.0750    0.0000 C   0  0  0  0  0  0  0  0  0  0  0  0
   15.0039   -8.6625    0.0000 C   0  0  0  0  0  0  0  0  0  0  0  0
   15.7184   -9.0750    0.0000 C   0  0  0  0  0  0  0  0  0  0  0  0
   15.7184   -9.9000    0.0000 C   0  0  0  0  0  0  0  0  0  0  0  0
   15.0039  -10.3125    0.0000 C   0  0  0  0  0  0  0  0  0  0  0  0
   14.2894   -9.9000    0.0000 C   0  0  0  0  0  0  0  0  0  0  0  0
   16.4328  -10.3125    0.0000 O   0  0  0  0  0  0  0  0  0  0  0  0
   16.4328   -8.6625    0.0000 C   0  0  0  0  0  0  0  0  0  0  0  0
   17.1473   -9.0750    0.0000 O   0  0  0  0  0  0  0  0  0  0  0  0
   13.5749   -7.8375    0.0000 O   0  0  0  0  0  0  0  0  0  0  0  0
    4.2868   -7.4250    0.0000 Cl  0  0  0  0  0  0  0  0  0  0  0  0
  1  2  2  0  0  0  0
  2  3  1  0  0  0  0
  3  4  2  0  0  0  0
  4  5  1  0  0  0  0
  5  6  2  0  0  0  0
  1  6  1  0  0  0  0
  5  7  1  0  0  0  0
  4  8  1  0  0  0  0
  8  9  1  0  0  0  0
  9 10  1  0  0  0  0
 10 11  1  0  0  0  0
 11 12  1  0  0  0  0
 12 13  1  0  0  0  0
 13 14  1  0  0  0  0
 14 15  1  0  0  0  0
 15 16  1  0  0  0  0
 16 17  1  0  0  0  0
 17 18  1  0  0  0  0
 18 19  1  0  0  0  0
 19 20  1  0  0  0  0
 20 21  1  0  0  0  0
 21 22  1  0  0  0  0
 22 23  2  0  0  0  0
 23 24  1  0  0  0  0
 24 25  2  0  0  0  0
 25 26  1  0  0  0  0
 26 27  2  0  0  0  0
 22 27  1  0  0  0  0
 25 28  1  0  0  0  0
 24 29  1  0  0  0  0
 29 30  1  0  0  0  0
 21 31  1  0  0  0  0
  3 32  1  0  0  0  0
M  END
>  <Name>
Vilanterol (GW642444; GW 642444X)

>  <CAS>
503068-34-6

>  <Formula>
C24H33Cl2NO5

>  <MolWt>
486.43 

>  <Bioactivity>
Vilanterol (GW642444; GW 642444X) is a novel, inhaled, long-acting ?(2) agonist with inherent 24-h activity under development as a once-daily combination therapy with an inhaled corticosteroid for COPD and asthma.

>  <Pathways>
GPCR/G Protein

>  <Target>
Adrenergic Receptor agonist

>  <Receptor>
?(2) Adrenergic Receptor

>  <Reference>
1. Slack RJ, et al. J Pharmacol Exp Ther. 2013 Jan;344(1):218-30

$$$$
T2656
  Mrv1561503291623562D          

 29 32  0  0  0  0            999 V2000
    4.2624   -5.7327    0.0000 C   0  0  0  0  0  0  0  0  0  0  0  0
    3.8499   -5.0182    0.0000 C   0  0  0  0  0  0  0  0  0  0  0  0
    4.1854   -4.2645    0.0000 C   0  0  0  0  0  0  0  0  0  0  0  0
    3.5724   -3.7125    0.0000 C   0  0  0  0  0  0  0  0  0  0  0  0
    2.8579   -4.1250    0.0000 C   0  0  0  0  0  0  0  0  0  0  0  0
    3.0294   -4.9320    0.0000 O   0  0  0  0  0  0  0  0  0  0  0  0
    2.1434   -3.7125    0.0000 C   0  0  0  0  0  0  0  0  0  0  0  0
    2.1434   -2.8875    0.0000 C   0  0  0  0  0  0  0  0  0  0  0  0
    2.8579   -2.4750    0.0000 C   0  0  0  0  0  0  0  0  0  0  0  0
    3.5724   -2.8875    0.0000 C   0  0  0  0  0  0  0  0  0  0  0  0
    1.4289   -2.4750    0.0000 O   0  0  0  0  0  0  0  0  0  0  0  0
    1.4289   -1.6500    0.0000 C   0  0  0  0  0  0  0  0  0  0  0  0
    0.7145   -1.2375    0.0000 N   0  0  0  0  0  0  0  0  0  0  0  0
    0.7145   -0.4125    0.0000 C   0  0  0  0  0  0  0  0  0  0  0  0
    1.4289   -0.0000    0.0000 N   0  0  0  0  0  0  0  0  0  0  0  0
    2.1434   -0.4125    0.0000 C   0  0  0  0  0  0  0  0  0  0  0  0
    2.8579   -0.0000    0.0000 C   0  0  0  0  0  0  0  0  0  0  0  0
    3.5724   -0.4125    0.0000 C   0  0  0  0  0  0  0  0  0  0  0  0
    3.5724   -1.2375    0.0000 C   0  0  0  0  0  0  0  0  0  0  0  0
    2.8579   -1.6500    0.0000 C   0  0  0  0  0  0  0  0  0  0  0  0
    2.1434   -1.2375    0.0000 C   0  0  0  0  0  0  0  0  0  0  0  0
    4.2868   -1.6500    0.0000 O   0  0  0  0  0  0  0  0  0  0  0  0
    4.2868   -2.4750    0.0000 C   0  0  0  0  0  0  0  0  0  0  0  0
    4.2868    0.0000    0.0000 O   0  0  0  0  0  0  0  0  0  0  0  0
    5.0013   -0.4125    0.0000 C   0  0  0  0  0  0  0  0  0  0  0  0
    4.9924   -4.0930    0.0000 C   0  0  0  0  0  0  0  0  0  0  0  0
    5.2474   -3.3084    0.0000 O   0  0  0  0  0  0  0  0  0  0  0  0
    5.5445   -4.7061    0.0000 N   0  0  0  0  0  0  0  0  0  0  0  0
    6.3514   -4.5346    0.0000 C   0  0  0  0  0  0  0  0  0  0  0  0
  1  2  1  0  0  0  0
  2  3  2  0  0  0  0
  3  4  1  0  0  0  0
  4  5  2  0  0  0  0
  5  6  1  0  0  0  0
  2  6  1  0  0  0  0
  5  7  1  0  0  0  0
  7  8  2  0  0  0  0
  8  9  1  0  0  0  0
  9 10  2  0  0  0  0
  4 10  1  0  0  0  0
  8 11  1  0  0  0  0
 11 12  1  0  0  0  0
 12 13  2  0  0  0  0
 13 14  1  0  0  0  0
 14 15  2  0  0  0  0
 15 16  1  0  0  0  0
 16 17  2  0  0  0  0
 17 18  1  0  0  0  0
 18 19  2  0  0  0  0
 19 20  1  0  0  0  0
 20 21  2  0  0  0  0
 16 21  1  0  0  0  0
 12 21  1  0  0  0  0
 19 22  1  0  0  0  0
 22 23  1  0  0  0  0
 18 24  1  0  0  0  0
 24 25  1  0  0  0  0
  3 26  1  0  0  0  0
 26 27  2  0  0  0  0
 26 28  1  0  0  0  0
 28 29  1  0  0  0  0
M  END
>  <Name>
Fruquintinib;HMPL-013

>  <CAS>
1194506-26-7

>  <Formula>
C21H19N3O5

>  <MolWt>
393.39 

>  <Bioactivity>
Fruquintinib (HMPL-013) is a small molecule vascular endothelial growth factor receptors inhibitor.

>  <Pathways>
Tyrosine Kinase/Adaptors

>  <Target>
VEGFR inhibitor 

>  <Receptor>
VEGFR

>  <Reference>
1. Gu Y, et al. Cancer Chemother Pharmacol. 2014 Jul;74(1):95-115.

$$$$
T2671
  Mrv1561503291623562D          

 28 31  0  0  1  0            999 V2000
    6.4516    4.9335    0.0000 C   0  0  0  0  0  0  0  0  0  0  0  0
    6.1160    4.1799    0.0000 N   0  0  0  0  0  0  0  0  0  0  0  0
    5.2955    4.0936    0.0000 C   0  0  0  0  0  0  0  0  0  0  0  0
    4.8106    4.7611    0.0000 O   0  0  0  0  0  0  0  0  0  0  0  0
    4.9600    3.3400    0.0000 C   0  0  0  0  0  0  0  0  0  0  0  0
    5.3725    2.6255    0.0000 C   0  0  0  0  0  0  0  0  0  0  0  0
    4.8204    2.0124    0.0000 N   0  0  0  0  0  0  0  0  0  0  0  0
    4.0668    2.3479    0.0000 N   0  0  0  0  0  0  0  0  0  0  0  0
    4.1530    3.1684    0.0000 C   0  0  0  0  0  0  0  0  0  0  0  0
    3.3523    1.9354    0.0000 C   0  0  0  0  0  0  0  0  0  0  0  0
    3.3523    1.1104    0.0000 N   0  0  0  0  0  0  0  0  0  0  0  0
    2.6378    0.6979    0.0000 C   0  0  0  0  0  0  0  0  0  0  0  0
    2.6378   -0.1271    0.0000 N   0  0  0  0  0  0  0  0  0  0  0  0
    1.9233    1.1104    0.0000 C   0  0  0  0  0  0  0  0  0  0  0  0
    1.1387    0.8555    0.0000 N   0  0  0  0  0  0  0  0  0  0  0  0
    0.6538    1.5229    0.0000 C   0  0  0  0  0  0  0  0  0  0  0  0
    1.1387    2.1904    0.0000 N   0  0  0  0  0  0  0  0  0  0  0  0
    0.8838    2.9750    0.0000 C   0  0  2  0  0  0  0  0  0  0  0  0
    0.0992    3.2299    0.0000 O   0  0  0  0  0  0  0  0  0  0  0  0
    0.0992    4.0549    0.0000 C   0  0  2  0  0  0  0  0  0  0  0  0
   -0.5683    4.5399    0.0000 C   0  0  0  0  0  0  0  0  0  0  0  0
   -1.3220    4.2043    0.0000 O   0  0  0  0  0  0  0  0  0  0  0  0
    0.8838    4.3099    0.0000 C   0  0  1  0  0  0  0  0  0  0  0  0
    1.1387    5.0945    0.0000 O   0  0  0  0  0  0  0  0  0  0  0  0
    1.3687    3.6424    0.0000 C   0  0  1  0  0  0  0  0  0  0  0  0
    2.1937    3.6424    0.0000 O   0  0  0  0  0  0  0  0  0  0  0  0
    1.9233    1.9354    0.0000 C   0  0  0  0  0  0  0  0  0  0  0  0
    2.6378    2.3479    0.0000 N   0  0  0  0  0  0  0  0  0  0  0  0
  1  2  1  0  0  0  0
  2  3  1  0  0  0  0
  3  4  2  0  0  0  0
  3  5  1  0  0  0  0
  5  6  4  0  0  0  0
  6  7  4  0  0  0  0
  7  8  4  0  0  0  0
  8  9  4  0  0  0  0
  5  9  4  0  0  0  0
  8 10  1  0  0  0  0
 10 11  4  0  0  0  0
 11 12  4  0  0  0  0
 12 13  1  0  0  0  0
 12 14  4  0  0  0  0
 14 15  4  0  0  0  0
 15 16  4  0  0  0  0
 16 17  4  0  0  0  0
 18 17  1  6  0  0  0
 18 19  1  0  0  0  0
 19 20  1  0  0  0  0
 20 21  1  6  0  0  0
 21 22  1  0  0  0  0
 20 23  1  0  0  0  0
 23 24  1  1  0  0  0
 23 25  1  0  0  0  0
 18 25  1  0  0  0  0
 25 26  1  1  0  0  0
 17 27  4  0  0  0  0
 14 27  4  0  0  0  0
 27 28  4  0  0  0  0
 10 28  4  0  0  0  0
M  END
>  <Name>
Regadenoson

>  <CAS>
313348-27-5

>  <Formula>
C15H18N8O5

>  <MolWt>
390.35 

>  <Bioactivity>
Regadenoson is an adenosine derivative and selective A2A adenosine receptor agonist with coronary vasodilating activity. Upon administration, regadenoson selectively binds to and activates the A2A adenosine receptor, which induces coronary vasodilation. This leads to an increase in coronary blood flow and enhances myocardial perfusion. Compared to adenosine, regadenoson has a longer half-life and shows higher selectivity towards the A2A adenosine receptor. This agent is a very weak agonist for the A1 adenosine receptor and has negligible affinity for the A2B and A3 adenosine receptors.

>  <Pathways>
GPCR/G Protein

>  <Target>
Adenosine Receptor Agonist

>  <Receptor>
A2A adenosine receptor 

>  <Reference>
1. Zoghbi GJ, Iskandrian AE. J Nucl Cardiol. 2012 Feb;19(1):126-41. 

$$$$
260-94-6
  Mrv1561503291623562D          

 14 16  0  0  0  0            999 V2000
    3.5724   -0.4125    0.0000 C   0  0  0  0  0  0  0  0  0  0  0  0
    4.2868   -0.0000    0.0000 C   0  0  0  0  0  0  0  0  0  0  0  0
    4.2868    0.8250    0.0000 C   0  0  0  0  0  0  0  0  0  0  0  0
    3.5724    1.2375    0.0000 C   0  0  0  0  0  0  0  0  0  0  0  0
    2.8579    0.8250    0.0000 C   0  0  0  0  0  0  0  0  0  0  0  0
    2.8579   -0.0000    0.0000 C   0  0  0  0  0  0  0  0  0  0  0  0
    2.1434   -0.4125    0.0000 N   0  0  0  0  0  0  0  0  0  0  0  0
    1.4289    0.0000    0.0000 C   0  0  0  0  0  0  0  0  0  0  0  0
    0.7145   -0.4125    0.0000 C   0  0  0  0  0  0  0  0  0  0  0  0
    0.0000   -0.0000    0.0000 C   0  0  0  0  0  0  0  0  0  0  0  0
   -0.0000    0.8250    0.0000 C   0  0  0  0  0  0  0  0  0  0  0  0
    0.7145    1.2375    0.0000 C   0  0  0  0  0  0  0  0  0  0  0  0
    1.4289    0.8250    0.0000 C   0  0  0  0  0  0  0  0  0  0  0  0
    2.1434    1.2375    0.0000 C   0  0  0  0  0  0  0  0  0  0  0  0
  1  2  2  0  0  0  0
  2  3  1  0  0  0  0
  3  4  2  0  0  0  0
  4  5  1  0  0  0  0
  5  6  2  0  0  0  0
  1  6  1  0  0  0  0
  6  7  1  0  0  0  0
  7  8  2  0  0  0  0
  8  9  1  0  0  0  0
  9 10  2  0  0  0  0
 10 11  1  0  0  0  0
 11 12  2  0  0  0  0
 12 13  1  0  0  0  0
  8 13  1  0  0  0  0
 13 14  2  0  0  0  0
  5 14  1  0  0  0  0
M  END
>  <Name>
Acridine

>  <CAS>
260-94-6

>  <Formula>
C13H9N

>  <MolWt>
179.22 

>  <Bioactivity>
fluorescent pH indicator

>  <Pathways>
Others

>  <Target>
Intermediates

>  <Receptor>
Others

>  <Reference>
1. Mitra P, et al. Int J Pharm. 2014 Oct 1;473(1-2):636-43. 

$$$$
60282-87-3
  Mrv1561503291623562D          

 23 26  0  0  1  0            999 V2000
    4.7875   -0.1416    0.0000 C   0  0  2  0  0  0  0  0  0  0  0  0
    4.7280   -0.9644    0.0000 O   0  0  0  0  0  0  0  0  0  0  0  0
    3.9629   -0.1684    0.0000 C   0  0  0  0  0  0  0  0  0  0  0  0
    3.6826    0.6076    0.0000 C   0  0  0  0  0  0  0  0  0  0  0  0
    2.8705    0.7528    0.0000 C   0  0  0  0  0  0  0  0  0  0  0  0
    2.3387    0.1221    0.0000 C   0  0  0  0  0  0  0  0  0  0  0  0
    1.5266    0.2673    0.0000 C   0  0  0  0  0  0  0  0  0  0  0  0
    0.9948   -0.3634    0.0000 C   0  0  0  0  0  0  0  0  0  0  0  0
    0.1827   -0.2182    0.0000 C   0  0  0  0  0  0  0  0  0  0  0  0
   -0.0976    0.5577    0.0000 C   0  0  0  0  0  0  0  0  0  0  0  0
   -0.9098    0.7029    0.0000 O   0  0  0  0  0  0  0  0  0  0  0  0
    0.4342    1.1884    0.0000 C   0  0  0  0  0  0  0  0  0  0  0  0
    1.2463    1.0432    0.0000 C   0  0  0  0  0  0  0  0  0  0  0  0
    1.7781    1.6739    0.0000 C   0  0  0  0  0  0  0  0  0  0  0  0
    2.5902    1.5287    0.0000 C   0  0  0  0  0  0  0  0  0  0  0  0
    2.6190   -0.6539    0.0000 C   0  0  0  0  0  0  0  0  0  0  0  0
    3.4311   -0.7991    0.0000 C   0  0  0  0  0  0  0  0  0  0  0  0
    4.3340    1.1139    0.0000 C   0  0  0  0  0  0  0  0  0  0  0  0
    5.0168    0.6509    0.0000 C   0  0  0  0  0  0  0  0  0  0  0  0
    4.3228   -0.9107    0.0000 C   0  0  0  0  0  0  0  0  0  0  0  0
    3.8598   -1.5936    0.0000 C   0  0  0  0  0  0  0  0  0  0  0  0
    5.5996   -0.2868    0.0000 C   0  0  0  0  0  0  0  0  0  0  0  0
    6.4118   -0.4320    0.0000 C   0  0  0  0  0  0  0  0  0  0  0  0
  1  2  1  6  0  0  0
  1  3  1  0  0  0  0
  3  4  1  0  0  0  0
  4  5  1  0  0  0  0
  5  6  1  0  0  0  0
  6  7  1  0  0  0  0
  7  8  1  0  0  0  0
  8  9  1  0  0  0  0
  9 10  1  0  0  0  0
 10 11  2  0  0  0  0
 10 12  1  0  0  0  0
 12 13  2  0  0  0  0
  7 13  1  0  0  0  0
 13 14  1  0  0  0  0
 14 15  1  0  0  0  0
  5 15  1  0  0  0  0
  6 16  1  0  0  0  0
 16 17  1  0  0  0  0
  3 17  1  0  0  0  0
  4 18  1  0  0  0  0
 18 19  2  0  0  0  0
  1 19  1  0  0  0  0
  3 20  1  0  0  0  0
 20 21  1  0  0  0  0
  1 22  1  1  0  0  0
 22 23  3  0  0  0  0
M  END
>  <Name>
Gestodene

>  <CAS>
60282-87-3

>  <Formula>
C21H26O2

>  <MolWt>
310.43 

>  <Bioactivity>
Estrogens and progestins are female hormones. They are produced by the body and are necessary for the normal sexual development of the female and for the regulation of the menstrual cycle during the childbearing years. Gestodene is a progestogen hormonal contraceptive. 

>  <Pathways>
Endocrinology/ Hormones

>  <Target>
Estrogen/Progestogen Receptor agonist

>  <Receptor>
Estrogen/progestogen Receptor

>  <Reference>
1. Lidegaard Ø, et al. BMJ. 2011 Oct 25;343:d6423. 

$$$$
192564-14-0
  Mrv1561503291623562D          

135145  0  0  0  0            999 V2000
   -0.1308   -4.7556    0.0000 C   0  0  0  0  0  0  0  0  0  0  0  0
   -0.7701   -4.1117    0.0000 C   0  0  0  0  0  0  0  0  0  0  0  0
   -0.8630   -4.9315    0.0000 C   0  0  0  0  0  0  0  0  0  0  0  0
   -1.6193   -5.2609    0.0000 C   0  0  0  0  0  0  0  0  0  0  0  0
   -2.2828   -4.7706    0.0000 C   0  0  0  0  0  0  0  0  0  0  0  0
   -2.1899   -3.9508    0.0000 C   0  0  0  0  0  0  0  0  0  0  0  0
   -1.4335   -3.6214    0.0000 O   0  0  0  0  0  0  0  0  0  0  0  0
   -2.9262   -3.5461    0.0000 O   0  0  0  0  0  0  0  0  0  0  0  0
   -2.5599   -2.5706    0.0000 C   0  0  0  0  0  0  0  0  0  0  0  0
   -3.3825   -2.1969    0.0000 C   0  0  0  0  0  0  0  0  0  0  0  0
   -3.2416   -3.0529    0.0000 C   0  0  0  0  0  0  0  0  0  0  0  0
   -4.0984   -3.2935    0.0000 O   0  0  0  0  0  0  0  0  0  0  0  0
   -2.3789   -3.1447    0.0000 N   0  0  0  0  0  0  0  0  0  0  0  0
   -2.1252   -2.2141    0.0000 C   0  0  0  0  0  0  0  0  0  0  0  0
   -1.7111   -1.3783    0.0000 C   0  0  0  0  0  0  0  0  0  0  0  0
   -2.5130   -1.1845    0.0000 C   0  0  0  0  0  0  0  0  0  0  0  0
   -2.7461   -0.3931    0.0000 C   0  0  0  0  0  0  0  0  0  0  0  0
   -2.1349    0.3132    0.0000 C   0  0  0  0  0  0  0  0  0  0  0  0
   -1.2484    0.3368    0.0000 C   0  0  0  0  0  0  0  0  0  0  0  0
   -1.1423   -0.7807    0.0000 C   0  0  0  0  0  0  0  0  0  0  0  0
   -1.3839   -0.0019    0.0000 C   0  0  0  0  0  0  0  0  0  0  0  0
   -1.3148    0.8248    0.0000 C   0  0  0  0  0  0  0  0  0  0  0  0
   -2.0995    1.2709    0.0000 C   0  0  0  0  0  0  0  0  0  0  0  0
   -2.8087    0.8508    0.0000 C   0  0  0  0  0  0  0  0  0  0  0  0
   -2.9267    0.0345    0.0000 C   0  0  0  0  0  0  0  0  0  0  0  0
   -2.0998   -0.3995    0.0000 C   0  0  0  0  0  0  0  0  0  0  0  0
   -3.6738    0.4403    0.0000 C   0  0  0  0  0  0  0  0  0  0  0  0
   -3.9150   -0.4598    0.0000 C   0  0  0  0  0  0  0  0  0  0  0  0
   -4.8177   -0.4041    0.0000 O   0  0  0  0  0  0  0  0  0  0  0  0
   -3.8040   -1.3867    0.0000 N   0  0  0  0  0  0  0  0  0  0  0  0
   -3.2933    1.3391    0.0000 N   0  0  0  0  0  0  0  0  0  0  0  0
   -2.4601    1.8066    0.0000 C   0  0  0  0  0  0  0  0  0  0  0  0
   -2.7554    2.6673    0.0000 O   0  0  0  0  0  0  0  0  0  0  0  0
   -1.4667    1.5875    0.0000 C   0  0  0  0  0  0  0  0  0  0  0  0
   -0.4345    1.5602    0.0000 C   0  0  0  0  0  0  0  0  0  0  0  0
   -0.4563    0.4956    0.0000 C   0  0  0  0  0  0  0  0  0  0  0  0
    0.1506   -0.0990    0.0000 C   0  0  0  0  0  0  0  0  0  0  0  0
    0.8771    0.2853    0.0000 C   0  0  0  0  0  0  0  0  0  0  0  0
    1.0630    1.0757    0.0000 C   0  0  0  0  0  0  0  0  0  0  0  0
    0.3573    1.5704    0.0000 C   0  0  0  0  0  0  0  0  0  0  0  0
    1.7828    0.4856    0.0000 O   0  0  0  0  0  0  0  0  0  0  0  0
    2.0292   -0.3646    0.0000 C   0  0  0  0  0  0  0  0  0  0  0  0
    1.2492   -0.5684    0.0000 C   0  0  0  0  0  0  0  0  0  0  0  0
    0.9339   -1.3267    0.0000 C   0  0  0  0  0  0  0  0  0  0  0  0
    1.3428   -2.0333    0.0000 C   0  0  0  0  0  0  0  0  0  0  0  0
    2.1633   -1.8902    0.0000 C   0  0  0  0  0  0  0  0  0  0  0  0
    2.5125   -1.0872    0.0000 C   0  0  0  0  0  0  0  0  0  0  0  0
    0.5042   -2.4194    0.0000 C   0  0  0  0  0  0  0  0  0  0  0  0
   -0.5110   -2.3306    0.0000 C   0  0  0  0  0  0  0  0  0  0  0  0
   -1.4803   -2.1435    0.0000 C   0  0  0  0  0  0  0  0  0  0  0  0
   -2.0257   -2.8581    0.0000 O   0  0  0  0  0  0  0  0  0  0  0  0
   -2.2740   -1.5690    0.0000 N   0  0  0  0  0  0  0  0  0  0  0  0
   -2.6736   -0.7896    0.0000 C   0  0  0  0  0  0  0  0  0  0  0  0
   -2.3505    0.0672    0.0000 C   0  0  0  0  0  0  0  0  0  0  0  0
   -3.2218    0.5731    0.0000 O   0  0  0  0  0  0  0  0  0  0  0  0
   -1.8888    0.7519    0.0000 N   0  0  0  0  0  0  0  0  0  0  0  0
   -3.7347   -0.9507    0.0000 C   0  0  0  0  0  0  0  0  0  0  0  0
   -4.7738   -0.9927    0.0000 C   0  0  0  0  0  0  0  0  0  0  0  0
   -5.4091   -0.2287    0.0000 O   0  0  0  0  0  0  0  0  0  0  0  0
   -5.4768   -1.5745    0.0000 N   0  0  0  0  0  0  0  0  0  0  0  0
    0.2441   -3.3239    0.0000 N   0  0  0  0  0  0  0  0  0  0  0  0
    1.0655   -4.0602    0.0000 C   0  0  0  0  0  0  0  0  0  0  0  0
    1.1724   -4.9543    0.0000 O   0  0  0  0  0  0  0  0  0  0  0  0
    1.8858   -4.5688    0.0000 C   0  0  0  0  0  0  0  0  0  0  0  0
    2.5522   -5.2209    0.0000 C   0  0  0  0  0  0  0  0  0  0  0  0
    3.4535   -5.2873    0.0000 C   0  0  0  0  0  0  0  0  0  0  0  0
    4.0967   -4.7034    0.0000 C   0  0  0  0  0  0  0  0  0  0  0  0
    4.2280   -5.6664    0.0000 C   0  0  0  0  0  0  0  0  0  0  0  0
    2.6793   -4.3186    0.0000 N   0  0  0  0  0  0  0  0  0  0  0  0
    2.9798   -3.5723    0.0000 C   0  0  0  0  0  0  0  0  0  0  0  0
    1.3364   -2.7379    0.0000 O   0  0  0  0  0  0  0  0  0  0  0  0
    0.6316   -0.0533    0.0000 Cl  0  0  0  0  0  0  0  0  0  0  0  0
    1.5481   -0.1193    0.0000 O   0  0  0  0  0  0  0  0  0  0  0  0
    2.2932    0.0944    0.0000 C   0  0  0  0  0  0  0  0  0  0  0  0
    2.4822    0.8975    0.0000 C   0  0  0  0  0  0  0  0  0  0  0  0
    3.2721    1.1354    0.0000 C   0  0  0  0  0  0  0  0  0  0  0  0
    3.8731    0.5703    0.0000 C   0  0  0  0  0  0  0  0  0  0  0  0
    3.6842   -0.2328    0.0000 C   0  0  0  0  0  0  0  0  0  0  0  0
    2.8943   -0.4707    0.0000 O   0  0  0  0  0  0  0  0  0  0  0  0
    4.4789   -0.6545    0.0000 C   0  0  0  0  0  0  0  0  0  0  0  0
    5.3345   -0.5806    0.0000 O   0  0  0  0  0  0  0  0  0  0  0  0
    4.7137    0.7892    0.0000 O   0  0  0  0  0  0  0  0  0  0  0  0
    3.5685    2.0535    0.0000 O   0  0  0  0  0  0  0  0  0  0  0  0
    2.8796    1.6846    0.0000 O   0  0  0  0  0  0  0  0  0  0  0  0
    2.3067    2.3223    0.0000 C   0  0  0  0  0  0  0  0  0  0  0  0
    2.6268    3.0826    0.0000 C   0  0  0  0  0  0  0  0  0  0  0  0
    2.1283    3.7400    0.0000 C   0  0  0  0  0  0  0  0  0  0  0  0
    1.3098    3.6370    0.0000 C   0  0  0  0  0  0  0  0  0  0  0  0
    0.9897    2.8766    0.0000 C   0  0  0  0  0  0  0  0  0  0  0  0
    1.4882    2.2193    0.0000 O   0  0  0  0  0  0  0  0  0  0  0  0
    0.1711    2.7736    0.0000 C   0  0  0  0  0  0  0  0  0  0  0  0
    0.8113    4.2944    0.0000 O   0  0  0  0  0  0  0  0  0  0  0  0
    2.7679    4.2611    0.0000 C   0  0  0  0  0  0  0  0  0  0  0  0
    2.0539    4.5617    0.0000 N   0  0  0  0  0  0  0  0  0  0  0  0
    2.7283    5.0369    0.0000 C   0  0  0  0  0  0  0  0  0  0  0  0
    2.6539    5.8585    0.0000 C   0  0  0  0  0  0  0  0  0  0  0  0
    1.9052    6.2049    0.0000 C   0  0  0  0  0  0  0  0  0  0  0  0
    1.8308    7.0266    0.0000 C   0  0  0  0  0  0  0  0  0  0  0  0
    2.5052    7.5018    0.0000 C   0  0  0  0  0  0  0  0  0  0  0  0
    3.2539    7.1554    0.0000 C   0  0  0  0  0  0  0  0  0  0  0  0
    3.3283    6.3338    0.0000 C   0  0  0  0  0  0  0  0  0  0  0  0
    2.4308    8.3235    0.0000 C   0  0  0  0  0  0  0  0  0  0  0  0
    1.6820    8.6699    0.0000 C   0  0  0  0  0  0  0  0  0  0  0  0
    1.6077    9.4915    0.0000 C   0  0  0  0  0  0  0  0  0  0  0  0
    2.2820    9.9667    0.0000 C   0  0  0  0  0  0  0  0  0  0  0  0
    3.0308    9.6203    0.0000 C   0  0  0  0  0  0  0  0  0  0  0  0
    3.1052    8.7987    0.0000 C   0  0  0  0  0  0  0  0  0  0  0  0
    2.2077   10.7884    0.0000 Cl  0  0  0  0  0  0  0  0  0  0  0  0
    0.1447   -0.9744    0.0000 O   0  0  0  0  0  0  0  0  0  0  0  0
    0.1007   -1.8978    0.0000 C   0  0  0  0  0  0  0  0  0  0  0  0
   -0.4962   -1.4238    0.0000 C   0  0  0  0  0  0  0  0  0  0  0  0
   -1.1631   -1.7881    0.0000 C   0  0  0  0  0  0  0  0  0  0  0  0
   -1.4895   -2.8206    0.0000 C   0  0  0  0  0  0  0  0  0  0  0  0
   -0.8099   -3.1614    0.0000 C   0  0  0  0  0  0  0  0  0  0  0  0
   -0.0280   -2.8389    0.0000 C   0  0  0  0  0  0  0  0  0  0  0  0
   -0.2805   -0.5654    0.0000 Cl  0  0  0  0  0  0  0  0  0  0  0  0
   -1.0458    1.8116    0.0000 O   0  0  0  0  0  0  0  0  0  0  0  0
   -0.8816    1.2655    0.0000 O   0  0  0  0  0  0  0  0  0  0  0  0
   -3.6083   -0.0872    0.0000 O   0  0  0  0  0  0  0  0  0  0  0  0
   -1.1096   -2.5879    0.0000 C   0  0  0  0  0  0  0  0  0  0  0  0
   -0.6611   -1.8928    0.0000 O   0  0  0  0  0  0  0  0  0  0  0  0
   -0.9926   -3.5927    0.0000 O   0  0  0  0  0  0  0  0  0  0  0  0
   -2.0876   -6.0334    0.0000 C   0  0  0  0  0  0  0  0  0  0  0  0
   -1.4993   -6.1538    0.0000 N   0  0  0  0  0  0  0  0  0  0  0  0
   -0.5834   -5.8049    0.0000 O   0  0  0  0  0  0  0  0  0  0  0  0
    8.0452   -0.8250    0.0000 O   0  0  0  0  0  0  0  0  0  0  0  0
    8.0452    0.0000    0.0000 P   0  0  0  0  0  0  0  0  0  0  0  0
    8.0452    0.8250    0.0000 O   0  0  0  0  0  0  0  0  0  0  0  0
    8.8702   -0.0000    0.0000 O   0  0  0  0  0  0  0  0  0  0  0  0
    7.2202    0.0000    0.0000 O   0  0  0  0  0  0  0  0  0  0  0  0
    0.0000   -9.4538    0.0000 O   0  0  0  0  0  0  0  0  0  0  0  0
    0.0000   -8.6288    0.0000 P   0  0  0  0  0  0  0  0  0  0  0  0
    0.0000   -7.8038    0.0000 O   0  0  0  0  0  0  0  0  0  0  0  0
    0.8250   -8.6288    0.0000 O   0  0  0  0  0  0  0  0  0  0  0  0
   -0.8250   -8.6288    0.0000 O   0  0  0  0  0  0  0  0  0  0  0  0
  1  2  1  0  0  0  0
  2  3  1  0  0  0  0
  3  4  1  0  0  0  0
  4  5  1  0  0  0  0
  5  6  1  0  0  0  0
  6  7  1  0  0  0  0
  2  7  1  0  0  0  0
  6  8  1  0  0  0  0
  8  9  1  0  0  0  0
  9 10  1  0  0  0  0
 10 11  1  0  0  0  0
 11 12  2  0  0  0  0
 11 13  1  0  0  0  0
 13 14  1  0  0  0  0
 14 15  1  0  0  0  0
 15 16  2  0  0  0  0
 16 17  1  0  0  0  0
 17 18  2  0  0  0  0
 18 19  1  0  0  0  0
 19 20  2  0  0  0  0
 15 20  1  0  0  0  0
 20 21  1  0  0  0  0
 21 22  2  0  0  0  0
 22 23  1  0  0  0  0
 23 24  2  0  0  0  0
 24 25  1  0  0  0  0
 25 26  2  0  0  0  0
 21 26  1  0  0  0  0
 25 27  1  0  0  0  0
 27 28  1  0  0  0  0
 28 29  2  0  0  0  0
 28 30  1  0  0  0  0
 10 30  1  0  0  0  0
 27 31  1  0  0  0  0
 31 32  1  0  0  0  0
 32 33  2  0  0  0  0
 32 34  1  0  0  0  0
 34 35  1  0  0  0  0
 35 36  2  0  0  0  0
 36 37  1  0  0  0  0
 37 38  2  0  0  0  0
 38 39  1  0  0  0  0
 39 40  2  0  0  0  0
 35 40  1  0  0  0  0
 39 41  1  0  0  0  0
 41 42  1  0  0  0  0
 42 43  2  0  0  0  0
 43 44  1  0  0  0  0
 44 45  2  0  0  0  0
 45 46  1  0  0  0  0
 46 47  2  0  0  0  0
 42 47  1  0  0  0  0
 45 48  1  0  0  0  0
 48 49  1  0  0  0  0
 49 50  1  0  0  0  0
 50 51  2  0  0  0  0
 50 52  1  0  0  0  0
 52 53  1  0  0  0  0
 53 54  1  0  0  0  0
 54 55  2  0  0  0  0
 54 56  1  0  0  0  0
 34 56  1  0  0  0  0
 53 57  1  0  0  0  0
 57 58  1  0  0  0  0
 58 59  2  0  0  0  0
 58 60  1  0  0  0  0
 49 61  1  0  0  0  0
 61 62  1  0  0  0  0
 62 63  2  0  0  0  0
 62 64  1  0  0  0  0
 64 65  1  0  0  0  0
 65 66  1  0  0  0  0
 66 67  1  0  0  0  0
 66 68  1  0  0  0  0
 64 69  1  0  0  0  0
 69 70  1  0  0  0  0
 48 71  1  0  0  0  0
 43 72  1  0  0  0  0
 38 73  1  0  0  0  0
 73 74  1  0  0  0  0
 74 75  1  0  0  0  0
 75 76  1  0  0  0  0
 76 77  1  0  0  0  0
 77 78  1  0  0  0  0
 78 79  1  0  0  0  0
 74 79  1  0  0  0  0
 78 80  1  0  0  0  0
 80 81  1  0  0  0  0
 77 82  1  0  0  0  0
 76 83  1  0  0  0  0
 75 84  1  0  0  0  0
 84 85  1  0  0  0  0
 85 86  1  0  0  0  0
 86 87  1  0  0  0  0
 87 88  1  0  0  0  0
 88 89  1  0  0  0  0
 89 90  1  0  0  0  0
 85 90  1  0  0  0  0
 89 91  1  0  0  0  0
 88 92  1  0  0  0  0
 87 93  1  0  0  0  0
 87 94  1  0  0  0  0
 94 95  1  0  0  0  0
 95 96  1  0  0  0  0
 96 97  2  0  0  0  0
 97 98  1  0  0  0  0
 98 99  2  0  0  0  0
 99100  1  0  0  0  0
100101  2  0  0  0  0
 96101  1  0  0  0  0
 99102  1  0  0  0  0
102103  2  0  0  0  0
103104  1  0  0  0  0
104105  2  0  0  0  0
105106  1  0  0  0  0
106107  2  0  0  0  0
102107  1  0  0  0  0
105108  1  0  0  0  0
 37109  1  0  0  0  0
109110  1  0  0  0  0
110111  2  0  0  0  0
111112  1  0  0  0  0
112113  2  0  0  0  0
  9113  1  0  0  0  0
113114  1  0  0  0  0
114115  2  0  0  0  0
110115  1  0  0  0  0
111116  1  0  0  0  0
 22117  1  0  0  0  0
 19118  1  0  0  0  0
 17119  1  0  0  0  0
 14120  1  0  0  0  0
120121  2  0  0  0  0
120122  1  0  0  0  0
  4123  1  0  0  0  0
  4124  1  0  0  0  0
  3125  1  0  0  0  0
126127  1  0  0  0  0
127128  2  0  0  0  0
127129  1  0  0  0  0
127130  1  0  0  0  0
131132  1  0  0  0  0
132133  2  0  0  0  0
132134  1  0  0  0  0
132135  1  0  0  0  0
M  END
>  <Name>
Oritavancin diphosphate

>  <CAS>
192564-14-0

>  <Formula>
C86H103Cl3N10O34P2

>  <MolWt>
1989.09 

>  <Bioactivity>
Oritavancin diphosphate is a novel semisynthetic glycopeptide antibiotic being developed for the treatment of serious Gram-positive bacterial infections.

>  <Pathways>
Microbiology & Virology

>  <Target>
Antibacterial

>  <Receptor>
Others

>  <Reference>
1. Arhin FF, et al. Antimicrob Agents Chemother. 2008 May;52(5):1597-1603.

$$$$
T2648
  Mrv1561503291623562D          

 56 59  0  0  1  0            999 V2000
   10.2757    4.7366    0.0000 C   0  0  0  0  0  0  0  0  0  0  0  0
    9.7397    4.1094    0.0000 C   0  0  0  0  0  0  0  0  0  0  0  0
   10.0150    3.3317    0.0000 C   0  0  2  0  0  0  0  0  0  0  0  0
   10.5509    3.9589    0.0000 C   0  0  0  0  0  0  0  0  0  0  0  0
   11.3620    3.8084    0.0000 C   0  0  0  0  0  0  0  0  0  0  0  0
   11.8842    4.4471    0.0000 C   0  0  0  0  0  0  0  0  0  0  0  0
   11.6999    2.9712    0.0000 C   0  0  0  0  0  0  0  0  0  0  0  0
   12.4248    2.5774    0.0000 C   0  0  2  0  0  0  0  0  0  0  0  0
   13.1695    2.9324    0.0000 C   0  0  0  0  0  0  0  0  0  0  0  0
   12.2743    1.7662    0.0000 C   0  0  0  0  0  0  0  0  0  0  0  0
   11.4563    1.6587    0.0000 C   0  0  2  0  0  0  0  0  0  0  0  0
   11.8340    0.9252    0.0000 O   0  0  0  0  0  0  0  0  0  0  0  0
   12.6580    0.8856    0.0000 C   0  0  0  0  0  0  0  0  0  0  0  0
   10.8406    0.9985    0.0000 C   0  0  1  0  0  0  0  0  0  0  0  0
   10.0295    1.1490    0.0000 O   0  0  0  0  0  0  0  0  0  0  0  0
    9.4935    0.5218    0.0000 C   0  0  2  0  0  0  0  0  0  0  0  0
    8.9576   -0.1054    0.0000 O   0  0  0  0  0  0  0  0  0  0  0  0
    9.7687   -0.2560    0.0000 C   0  0  2  0  0  0  0  0  0  0  0  0
    9.2328   -0.8832    0.0000 C   0  0  0  0  0  0  0  0  0  0  0  0
   10.5799   -0.4065    0.0000 C   0  0  0  0  0  0  0  0  0  0  0  0
   11.1158    0.2207    0.0000 C   0  0  2  0  0  0  0  0  0  0  0  0
   11.9270    0.0702    0.0000 O   0  0  0  0  0  0  0  0  0  0  0  0
   12.2022   -0.7075    0.0000 C   0  0  0  0  0  0  0  0  0  0  0  0
    8.6824    0.6723    0.0000 C   0  0  0  0  0  0  0  0  0  0  0  0
    8.4072    1.4500    0.0000 O   0  0  0  0  0  0  0  0  0  0  0  0
    8.1464    0.0451    0.0000 C   0  0  0  0  0  0  0  0  0  0  0  0
    8.4217   -0.7327    0.0000 O   0  0  0  0  0  0  0  0  0  0  0  0
    7.3353    0.1956    0.0000 N   0  0  0  0  0  0  0  0  0  0  0  0
    6.7994   -0.4316    0.0000 C   0  0  0  0  0  0  0  0  0  0  0  0
    5.9882   -0.2811    0.0000 C   0  0  0  0  0  0  0  0  0  0  0  0
    5.7130    0.4966    0.0000 C   0  0  0  0  0  0  0  0  0  0  0  0
    5.9330    1.2746    0.0000 C   0  0  0  0  0  0  0  0  0  0  0  0
    7.0601    0.9733    0.0000 C   0  0  1  0  0  0  0  0  0  0  0  0
    6.2489    1.1239    0.0000 C   0  0  0  0  0  0  0  0  0  0  0  0
    5.4467    0.9314    0.0000 O   0  0  0  0  0  0  0  0  0  0  0  0
    5.9737    1.9016    0.0000 O   0  0  0  0  0  0  0  0  0  0  0  0
    6.5096    2.5288    0.0000 C   0  0  1  0  0  0  0  0  0  0  0  0
    7.3208    2.3783    0.0000 C   0  0  2  0  0  0  0  0  0  0  0  0
    7.5960    1.6006    0.0000 C   0  0  0  0  0  0  0  0  0  0  0  0
    7.8567    3.0055    0.0000 C   0  0  1  0  0  0  0  0  0  0  0  0
    7.5815    3.7833    0.0000 O   0  0  0  0  0  0  0  0  0  0  0  0
    8.6679    2.8550    0.0000 C   0  0  0  0  0  0  0  0  0  0  0  0
    9.2038    3.4822    0.0000 C   0  0  0  0  0  0  0  0  0  0  0  0
    8.9286    4.2599    0.0000 O   0  0  0  0  0  0  0  0  0  0  0  0
    6.2344    3.3066    0.0000 C   0  0  0  0  0  0  0  0  0  0  0  0
    6.7703    3.9338    0.0000 C   0  0  0  0  0  0  0  0  0  0  0  0
    5.4233    3.4571    0.0000 C   0  0  0  0  0  0  0  0  0  0  0  0
    5.1480    4.2348    0.0000 C   0  0  2  0  0  0  0  0  0  0  0  0
    4.3369    4.3853    0.0000 C   0  0  0  0  0  0  0  0  0  0  0  0
    4.0617    5.1631    0.0000 C   0  0  0  0  0  0  0  0  0  0  0  0
    4.5976    5.7903    0.0000 C   0  0  2  0  0  0  0  0  0  0  0  0
    4.3224    6.5680    0.0000 Cl  0  0  0  0  0  0  0  0  0  0  0  0
    5.4088    5.6398    0.0000 C   0  0  1  0  0  0  0  0  0  0  0  0
    5.6840    4.8620    0.0000 C   0  0  0  0  0  0  0  0  0  0  0  0
    5.9447    6.2670    0.0000 O   0  0  0  0  0  0  0  0  0  0  0  0
    6.7558    6.1165    0.0000 C   0  0  0  0  0  0  0  0  0  0  0  0
  1  2  1  0  0  0  0
  3  2  1  1  0  0  0
  3  4  1  0  0  0  0
  4  5  2  0  0  0  0
  5  6  1  0  0  0  0
  5  7  1  0  0  0  0
  7  8  1  0  0  0  0
  8  9  1  6  0  0  0
  8 10  1  0  0  0  0
 10 11  1  0  0  0  0
 11 12  1  1  0  0  0
 12 13  1  0  0  0  0
 11 14  1  0  0  0  0
 14 15  1  6  0  0  0
 15 16  1  0  0  0  0
 16 17  1  1  0  0  0
 16 18  1  0  0  0  0
 18 19  1  1  0  0  0
 18 20  1  0  0  0  0
 20 21  1  0  0  0  0
 14 21  1  0  0  0  0
 21 22  1  1  0  0  0
 22 23  1  0  0  0  0
 16 24  1  0  0  0  0
 24 25  2  0  0  0  0
 24 26  1  0  0  0  0
 26 27  2  0  0  0  0
 26 28  1  0  0  0  0
 28 29  1  0  0  0  0
 29 30  1  0  0  0  0
 30 31  1  0  0  0  0
 31 32  1  0  0  0  0
 32 33  1  0  0  0  0
 33 28  1  6  0  0  0
 33 34  1  0  0  0  0
 34 35  2  0  0  0  0
 34 36  1  0  0  0  0
 36 37  1  0  0  0  0
 37 38  1  0  0  0  0
 38 39  1  1  0  0  0
 38 40  1  0  0  0  0
 40 41  1  1  0  0  0
 40 42  1  0  0  0  0
 42 43  1  0  0  0  0
  3 43  1  0  0  0  0
 43 44  2  0  0  0  0
 37 45  1  6  0  0  0
 45 46  1  0  0  0  0
 45 47  2  0  0  0  0
 48 47  1  6  0  0  0
 48 49  1  0  0  0  0
 49 50  1  0  0  0  0
 50 51  1  0  0  0  0
 51 52  1  6  0  0  0
 51 53  1  0  0  0  0
 53 54  1  0  0  0  0
 48 54  1  0  0  0  0
 53 55  1  6  0  0  0
 55 56  1  0  0  0  0
M  END
>  <Name>
Pimecrolimus

>  <CAS>
137071-32-0

>  <Formula>
C43H68ClNO11

>  <MolWt>
810.45 

>  <Bioactivity>
Pimecrolimus, like all ascomycins, is an immunophilin ligand, which binds specifically to the cytosolic receptor, immunophilin macrophilin-12.

>  <Pathways>
Others

>  <Target>
Others

>  <Receptor>
Others

>  <Reference>
1. Nghiem P, et al. Am Acad Dermatol, 2002, 46(2), 228-241.

$$$$
6024-85-7
  Mrv1561503291623562D          

 27 29  0  0  0  0            999 V2000
    0.0104   -0.8935    0.0000 N   0  3  0  0  0  0  0  0  0  0  0  0
    0.2804   -0.1139    0.0000 C   0  0  0  0  0  0  0  0  0  0  0  0
    1.0906    0.0420    0.0000 C   0  0  0  0  0  0  0  0  0  0  0  0
    1.6307   -0.5817    0.0000 C   0  0  0  0  0  0  0  0  0  0  0  0
    2.4408   -0.4258    0.0000 C   0  0  0  0  0  0  0  0  0  0  0  0
    2.7108    0.3538    0.0000 C   0  0  0  0  0  0  0  0  0  0  0  0
    2.1707    0.9774    0.0000 C   0  0  0  0  0  0  0  0  0  0  0  0
    1.3606    0.8215    0.0000 C   0  0  0  0  0  0  0  0  0  0  0  0
    2.4408    1.7570    0.0000 O   0  0  0  0  0  0  0  0  0  0  0  0
    1.9007    2.3806    0.0000 C   0  0  0  0  0  0  0  0  0  0  0  0
    3.5210    0.5097    0.0000 O   0  0  0  0  0  0  0  0  0  0  0  0
    3.7910    1.2893    0.0000 C   0  0  0  0  0  0  0  0  0  0  0  0
    1.3606   -1.3612    0.0000 C   0  0  0  0  0  0  0  0  0  0  0  0
    0.5505   -1.5171    0.0000 C   0  0  0  0  0  0  0  0  0  0  0  0
   -0.2597    0.5097    0.0000 C   0  0  0  0  0  0  0  0  0  0  0  0
   -1.0698    0.3538    0.0000 C   0  0  0  0  0  0  0  0  0  0  0  0
   -1.3398   -0.4258    0.0000 C   0  0  0  0  0  0  0  0  0  0  0  0
   -0.7997   -1.0494    0.0000 C   0  0  0  0  0  0  0  0  0  0  0  0
   -2.1500   -0.5817    0.0000 C   0  0  0  0  0  0  0  0  0  0  0  0
   -2.6901    0.0420    0.0000 C   0  0  0  0  0  0  0  0  0  0  0  0
   -2.4200    0.8215    0.0000 C   0  0  0  0  0  0  0  0  0  0  0  0
   -1.6099    0.9774    0.0000 C   0  0  0  0  0  0  0  0  0  0  0  0
   -3.5002   -0.1139    0.0000 O   0  0  0  0  0  0  0  0  0  0  0  0
   -3.7702   -0.8935    0.0000 C   0  0  0  0  0  0  0  0  0  0  0  0
   -2.4200   -1.3612    0.0000 O   0  0  0  0  0  0  0  0  0  0  0  0
   -3.2301   -1.5171    0.0000 C   0  0  0  0  0  0  0  0  0  0  0  0
    6.1482    0.0000    0.0000 Cl  0  5  0  0  0  0  0  0  0  0  0  0
  1  2  1  0  0  0  0
  2  3  1  0  0  0  0
  3  4  2  0  0  0  0
  4  5  1  0  0  0  0
  5  6  2  0  0  0  0
  6  7  1  0  0  0  0
  7  8  2  0  0  0  0
  3  8  1  0  0  0  0
  7  9  1  0  0  0  0
  9 10  1  0  0  0  0
  6 11  1  0  0  0  0
 11 12  1  0  0  0  0
  4 13  1  0  0  0  0
 13 14  1  0  0  0  0
  1 14  1  0  0  0  0
  2 15  1  0  0  0  0
 15 16  1  0  0  0  0
 16 17  2  0  0  0  0
 17 18  1  0  0  0  0
  1 18  1  0  0  0  0
 17 19  1  0  0  0  0
 19 20  2  0  0  0  0
 20 21  1  0  0  0  0
 21 22  2  0  0  0  0
 16 22  1  0  0  0  0
 20 23  1  0  0  0  0
 23 24  1  0  0  0  0
 19 25  1  0  0  0  0
 25 26  1  0  0  0  0
M  CHG  2   1   1  27  -1
M  END
>  <Name>
Tetrahydropalmatine HCl

>  <CAS>
6024-85-7

>  <Formula>
C21H26ClNO4

>  <MolWt>
391.89 

>  <Bioactivity>
Tetrahydropalmatine (THP) is an alkaloid found in several different plant species, mainly in the Corydalis genus (Yan Hu Suo), but also in other plants such as Stephania rotunda.

>  <Pathways>
Others

>  <Target>
Others

>  <Receptor>
Others

>  <Reference>
1. Lee SJ, et al.
Biochem Biophys Res Commun. 2014 Dec 12;455(3-4):147-52.

$$$$
T2143
  Mrv1561503291623562D          

 16 18  0  0  0  0            999 V2000
    0.6411   -2.7604    0.0000 C   0  0  0  0  0  0  0  0  0  0  0  0
    1.3556   -2.3479    0.0000 C   0  0  0  0  0  0  0  0  0  0  0  0
    1.3556   -1.5229    0.0000 C   0  0  0  0  0  0  0  0  0  0  0  0
    0.6411   -1.1104    0.0000 C   0  0  0  0  0  0  0  0  0  0  0  0
   -0.0734   -1.5229    0.0000 C   0  0  0  0  0  0  0  0  0  0  0  0
   -0.0734   -2.3479    0.0000 C   0  0  0  0  0  0  0  0  0  0  0  0
   -0.8580   -2.6029    0.0000 O   0  0  0  0  0  0  0  0  0  0  0  0
   -1.3429   -1.9354    0.0000 C   0  0  0  0  0  0  0  0  0  0  0  0
   -0.8580   -1.2680    0.0000 C   0  0  0  0  0  0  0  0  0  0  0  0
    0.6411   -0.2854    0.0000 O   0  0  0  0  0  0  0  0  0  0  0  0
   -0.0734    0.1271    0.0000 C   0  0  0  0  0  0  0  0  0  0  0  0
    2.0701   -1.1104    0.0000 C   0  0  0  0  0  0  0  0  0  0  0  0
    2.7845   -1.5229    0.0000 C   0  0  0  0  0  0  0  0  0  0  0  0
    2.7845   -2.3479    0.0000 C   0  0  0  0  0  0  0  0  0  0  0  0
    2.0701   -2.7604    0.0000 O   0  0  0  0  0  0  0  0  0  0  0  0
    3.4990   -2.7604    0.0000 O   0  0  0  0  0  0  0  0  0  0  0  0
  1  2  2  0  0  0  0
  2  3  1  0  0  0  0
  3  4  2  0  0  0  0
  4  5  1  0  0  0  0
  5  6  2  0  0  0  0
  1  6  1  0  0  0  0
  6  7  1  0  0  0  0
  7  8  1  0  0  0  0
  8  9  2  0  0  0  0
  5  9  1  0  0  0  0
  4 10  1  0  0  0  0
 10 11  1  0  0  0  0
  3 12  1  0  0  0  0
 12 13  2  0  0  0  0
 13 14  1  0  0  0  0
 14 15  1  0  0  0  0
  2 15  1  0  0  0  0
 14 16  2  0  0  0  0
M  END
>  <Name>
Bergapten

>  <CAS>
484-20-8

>  <Formula>
C12H8O4

>  <MolWt>
216.19 

>  <Bioactivity>
Bergapten is a psoralen that can be photoactivated and is capable of crossing-linking DNA, covalently modifying proteins and lipids, and consequently inhibiting cell replication.

>  <Pathways>
DNA Damage/DNA Repair

>  <Target>
Cross-linking DNA

>  <Receptor>
DNA

>  <Reference>
1. Panno ML, et al. Breast Cancer Res Treat, 2012, 136(2), 443-455.

$$$$
T1795
  Mrv1561503291623562D          

 52 55  0  0  0  0            999 V2000
    5.0013  -10.3125    0.0000 C   0  0  0  0  0  0  0  0  0  0  0  0
    5.7158   -9.9000    0.0000 C   0  0  0  0  0  0  0  0  0  0  0  0
    5.7158   -9.0750    0.0000 C   0  0  0  0  0  0  0  0  0  0  0  0
    6.4302  -10.3125    0.0000 C   0  0  0  0  0  0  0  0  0  0  0  0
    7.1447   -9.9000    0.0000 C   0  0  0  0  0  0  0  0  0  0  0  0
    7.1447   -9.0750    0.0000 C   0  0  0  0  0  0  0  0  0  0  0  0
    7.8592   -8.6625    0.0000 O   0  0  0  0  0  0  0  0  0  0  0  0
    6.4302   -8.6625    0.0000 C   0  0  0  0  0  0  0  0  0  0  0  0
    5.8999   -8.0305    0.0000 C   0  0  0  0  0  0  0  0  0  0  0  0
    6.7124   -7.8873    0.0000 O   0  0  0  0  0  0  0  0  0  0  0  0
    5.8999   -9.2945    0.0000 C   0  0  0  0  0  0  0  0  0  0  0  0
    7.8592  -10.3125    0.0000 N   0  0  0  0  0  0  0  0  0  0  0  0
    8.5737   -9.9000    0.0000 C   0  0  0  0  0  0  0  0  0  0  0  0
    8.5737   -9.0750    0.0000 O   0  0  0  0  0  0  0  0  0  0  0  0
    9.2881  -10.3125    0.0000 C   0  0  0  0  0  0  0  0  0  0  0  0
    9.2881  -11.1375    0.0000 C   0  0  0  0  0  0  0  0  0  0  0  0
    8.5737  -11.5500    0.0000 C   0  0  0  0  0  0  0  0  0  0  0  0
    8.5737  -12.3750    0.0000 C   0  0  0  0  0  0  0  0  0  0  0  0
    7.8592  -12.7875    0.0000 C   0  0  0  0  0  0  0  0  0  0  0  0
    7.1447  -12.3750    0.0000 C   0  0  0  0  0  0  0  0  0  0  0  0
    7.1447  -11.5500    0.0000 C   0  0  0  0  0  0  0  0  0  0  0  0
    7.8592  -11.1375    0.0000 C   0  0  0  0  0  0  0  0  0  0  0  0
   10.0026   -9.9000    0.0000 N   0  0  0  0  0  0  0  0  0  0  0  0
   10.7171  -10.3125    0.0000 C   0  0  0  0  0  0  0  0  0  0  0  0
   10.7171  -11.1375    0.0000 O   0  0  0  0  0  0  0  0  0  0  0  0
   11.4315   -9.9000    0.0000 C   0  0  0  0  0  0  0  0  0  0  0  0
   11.4315   -9.0750    0.0000 C   0  0  0  0  0  0  0  0  0  0  0  0
   10.7171   -8.6625    0.0000 C   0  0  0  0  0  0  0  0  0  0  0  0
   10.0026   -9.0750    0.0000 C   0  0  0  0  0  0  0  0  0  0  0  0
   10.7171   -7.8375    0.0000 C   0  0  0  0  0  0  0  0  0  0  0  0
   12.1460  -10.3125    0.0000 N   0  0  0  0  0  0  0  0  0  0  0  0
   12.8605   -9.9000    0.0000 C   0  0  0  0  0  0  0  0  0  0  0  0
   12.8605   -9.0750    0.0000 O   0  0  0  0  0  0  0  0  0  0  0  0
   13.5749  -10.3125    0.0000 C   0  0  0  0  0  0  0  0  0  0  0  0
   13.5749  -11.1375    0.0000 C   0  0  0  0  0  0  0  0  0  0  0  0
   12.8605  -11.5500    0.0000 C   0  0  0  0  0  0  0  0  0  0  0  0
   12.8605  -12.3750    0.0000 C   0  0  0  0  0  0  0  0  0  0  0  0
   13.5749  -12.7875    0.0000 C   0  0  0  0  0  0  0  0  0  0  0  0
   13.5749  -13.6125    0.0000 C   0  0  0  0  0  0  0  0  0  0  0  0
   12.8605  -14.0250    0.0000 C   0  0  0  0  0  0  0  0  0  0  0  0
   12.1460  -13.6125    0.0000 C   0  0  0  0  0  0  0  0  0  0  0  0
   12.1460  -12.7875    0.0000 C   0  0  0  0  0  0  0  0  0  0  0  0
   14.2894   -9.9000    0.0000 N   0  0  0  0  0  0  0  0  0  0  0  0
   15.0039  -10.3125    0.0000 C   0  0  0  0  0  0  0  0  0  0  0  0
   15.0039  -11.1375    0.0000 O   0  0  0  0  0  0  0  0  0  0  0  0
   15.7184   -9.9000    0.0000 C   0  0  0  0  0  0  0  0  0  0  0  0
   16.4328  -10.3125    0.0000 N   0  0  0  0  0  0  0  0  0  0  0  0
   17.1473   -9.9000    0.0000 C   0  0  0  0  0  0  0  0  0  0  0  0
   17.8618  -10.3125    0.0000 C   0  0  0  0  0  0  0  0  0  0  0  0
   17.8618  -11.1375    0.0000 O   0  0  0  0  0  0  0  0  0  0  0  0
   17.1473  -11.5500    0.0000 C   0  0  0  0  0  0  0  0  0  0  0  0
   16.4328  -11.1375    0.0000 C   0  0  0  0  0  0  0  0  0  0  0  0
  1  2  1  0  0  0  0
  2  3  1  0  0  0  0
  2  4  1  0  0  0  0
  4  5  1  0  0  0  0
  5  6  1  0  0  0  0
  6  7  2  0  0  0  0
  6  8  1  0  0  0  0
  8  9  1  0  0  0  0
  9 10  1  0  0  0  0
  8 10  1  0  0  0  0
  8 11  1  0  0  0  0
  5 12  1  0  0  0  0
 12 13  1  0  0  0  0
 13 14  2  0  0  0  0
 13 15  1  0  0  0  0
 15 16  1  0  0  0  0
 16 17  1  0  0  0  0
 17 18  2  0  0  0  0
 18 19  1  0  0  0  0
 19 20  2  0  0  0  0
 20 21  1  0  0  0  0
 21 22  2  0  0  0  0
 17 22  1  0  0  0  0
 15 23  1  0  0  0  0
 23 24  1  0  0  0  0
 24 25  2  0  0  0  0
 24 26  1  0  0  0  0
 26 27  1  0  0  0  0
 27 28  1  0  0  0  0
 28 29  1  0  0  0  0
 28 30  1  0  0  0  0
 26 31  1  0  0  0  0
 31 32  1  0  0  0  0
 32 33  2  0  0  0  0
 32 34  1  0  0  0  0
 34 35  1  0  0  0  0
 35 36  1  0  0  0  0
 36 37  1  0  0  0  0
 37 38  2  0  0  0  0
 38 39  1  0  0  0  0
 39 40  2  0  0  0  0
 40 41  1  0  0  0  0
 41 42  2  0  0  0  0
 37 42  1  0  0  0  0
 34 43  1  0  0  0  0
 43 44  1  0  0  0  0
 44 45  2  0  0  0  0
 44 46  1  0  0  0  0
 46 47  1  0  0  0  0
 47 48  1  0  0  0  0
 48 49  1  0  0  0  0
 49 50  1  0  0  0  0
 50 51  1  0  0  0  0
 51 52  1  0  0  0  0
 47 52  1  0  0  0  0
M  END
>  <Name>
Carfilzomib (PR-171)

>  <CAS>
868540-17-4

>  <Formula>
C40H57N5O7

>  <MolWt>
719.91 

>  <Bioactivity>
Carfilzomib is an epoxomicin derivate with potential antineoplastic activity. Carfilzomib irreversibly binds to and inhibits the chymotrypsin-like activity of the 20S catalytic core subunit of the proteasome, a protease complex responsible for degrading a large variety of cellular proteins. Inhibition of proteasome-mediated proteolysis results in an accumulation of polyubiquinated proteins, which may lead to cell cycle arrest, induction of apoptosis, and inhibition of tumor growth.


>  <Pathways>
Proteases/Proteasome

>  <Target>
Protease inhibitor

>  <Receptor>
Proteasome

>  <Reference>
1. Kortuem KM, Stewart AK. Blood. 2013 Feb 7;121(6):893-7. 

$$$$
T1784
  Mrv1561503291623562D          

 68 71  0  0  1  0            999 V2000
    7.5440    4.9831    0.0000 C   0  0  1  0  0  0  0  0  0  0  0  0
    7.3527    5.7856    0.0000 C   0  0  0  0  0  0  0  0  0  0  0  0
    7.9520    6.3525    0.0000 C   0  0  1  0  0  0  0  0  0  0  0  0
    7.7607    7.1550    0.0000 O   0  0  0  0  0  0  0  0  0  0  0  0
    8.3600    7.7220    0.0000 C   0  0  0  0  0  0  0  0  0  0  0  0
    8.7427    6.1169    0.0000 C   0  0  2  0  0  0  0  0  0  0  0  0
    9.3420    6.6839    0.0000 O   0  0  0  0  0  0  0  0  0  0  0  0
   10.1326    6.4483    0.0000 C   0  0  0  0  0  0  0  0  0  0  0  0
   10.7320    7.0152    0.0000 C   0  0  0  0  0  0  0  0  0  0  0  0
   11.5226    6.7797    0.0000 O   0  0  0  0  0  0  0  0  0  0  0  0
    8.9340    5.3144    0.0000 C   0  0  0  0  0  0  0  0  0  0  0  0
    8.3346    4.7475    0.0000 C   0  0  0  0  0  0  0  0  0  0  0  0
    6.9447    4.4161    0.0000 C   0  0  0  0  0  0  0  0  0  0  0  0
    7.1360    3.6136    0.0000 C   0  0  2  0  0  0  0  0  0  0  0  0
    6.5366    3.0467    0.0000 C   0  0  1  0  0  0  0  0  0  0  0  0
    7.0354    2.3895    0.0000 O   0  0  0  0  0  0  0  0  0  0  0  0
    7.3813    1.6406    0.0000 C   0  0  0  0  0  0  0  0  0  0  0  0
    8.1633    1.9034    0.0000 O   0  0  0  0  0  0  0  0  0  0  0  0
    7.5581    0.8347    0.0000 C   0  0  1  0  0  0  0  0  0  0  0  0
    7.5576    0.0097    0.0000 N   0  0  0  0  0  0  0  0  0  0  0  0
    8.2718   -0.4033    0.0000 C   0  0  0  0  0  0  0  0  0  0  0  0
    8.9865    0.0087    0.0000 C   0  0  0  0  0  0  0  0  0  0  0  0
    8.9871    0.8337    0.0000 C   0  0  0  0  0  0  0  0  0  0  0  0
    8.2729    1.2467    0.0000 C   0  0  0  0  0  0  0  0  0  0  0  0
    7.3797   -0.7959    0.0000 C   0  0  0  0  0  0  0  0  0  0  0  0
    8.1613   -1.0598    0.0000 O   0  0  0  0  0  0  0  0  0  0  0  0
    7.0327   -1.5444    0.0000 C   0  0  0  0  0  0  0  0  0  0  0  0
    7.7394   -1.9702    0.0000 O   0  0  0  0  0  0  0  0  0  0  0  0
    6.5330   -2.2008    0.0000 C   0  0  2  0  0  0  0  0  0  0  0  0
    6.1726   -2.9429    0.0000 O   0  0  0  0  0  0  0  0  0  0  0  0
    5.3497   -3.0019    0.0000 C   0  0  1  0  0  0  0  0  0  0  0  0
    4.8872   -2.3187    0.0000 C   0  0  0  0  0  0  0  0  0  0  0  0
    5.2476   -1.5766    0.0000 C   0  0  0  0  0  0  0  0  0  0  0  0
    6.0705   -1.5176    0.0000 C   0  0  1  0  0  0  0  0  0  0  0  0
    6.4309   -0.7755    0.0000 C   0  0  0  0  0  0  0  0  0  0  0  0
    4.3796   -3.3406    0.0000 C   0  0  0  0  0  0  0  0  0  0  0  0
    3.5558   -3.3847    0.0000 C   0  0  2  0  0  0  0  0  0  0  0  0
    3.5106   -4.2084    0.0000 O   0  0  0  0  0  0  0  0  0  0  0  0
    4.2014   -4.6595    0.0000 C   0  0  0  0  0  0  0  0  0  0  0  0
    2.7418   -3.2506    0.0000 C   0  0  0  0  0  0  0  0  0  0  0  0
    1.9756   -2.9447    0.0000 C   0  0  0  0  0  0  0  0  0  0  0  0
    1.2930   -2.4813    0.0000 C   0  0  0  0  0  0  0  0  0  0  0  0
    0.7261   -1.8820    0.0000 C   0  0  0  0  0  0  0  0  0  0  0  0
    0.3013   -1.1748    0.0000 C   0  0  0  0  0  0  0  0  0  0  0  0
    0.0384   -0.3928    0.0000 C   0  0  0  0  0  0  0  0  0  0  0  0
   -0.0503    0.4275    0.0000 C   0  0  2  0  0  0  0  0  0  0  0  0
    0.0395    1.2476    0.0000 C   0  0  0  0  0  0  0  0  0  0  0  0
    0.3035    2.0292    0.0000 C   0  0  2  0  0  0  0  0  0  0  0  0
    0.7293    2.7358    0.0000 C   0  0  0  0  0  0  0  0  0  0  0  0
    0.0728    3.2355    0.0000 O   0  0  0  0  0  0  0  0  0  0  0  0
    1.2970    3.3344    0.0000 C   0  0  2  0  0  0  0  0  0  0  0  0
    0.7634    3.9635    0.0000 O   0  0  0  0  0  0  0  0  0  0  0  0
   -0.0483    3.8159    0.0000 C   0  0  0  0  0  0  0  0  0  0  0  0
    1.9802    3.7969    0.0000 C   0  0  2  0  0  0  0  0  0  0  0  0
    1.5943    4.5260    0.0000 O   0  0  0  0  0  0  0  0  0  0  0  0
    2.7468    4.1017    0.0000 C   0  0  0  0  0  0  0  0  0  0  0  0
    3.5610    4.2346    0.0000 C   0  0  0  0  0  0  0  0  0  0  0  0
    4.3848    4.1894    0.0000 C   0  0  2  0  0  0  0  0  0  0  0  0
    5.1796    3.9681    0.0000 C   0  0  0  0  0  0  0  0  0  0  0  0
    5.4855    4.7343    0.0000 O   0  0  0  0  0  0  0  0  0  0  0  0
    5.9082    3.5812    0.0000 C   0  0  0  0  0  0  0  0  0  0  0  0
    4.5188    5.0034    0.0000 C   0  0  0  0  0  0  0  0  0  0  0  0
    2.5267    4.8968    0.0000 C   0  0  0  0  0  0  0  0  0  0  0  0
   -0.4450    2.3761    0.0000 C   0  0  0  0  0  0  0  0  0  0  0  0
   -0.8753    0.4280    0.0000 C   0  0  0  0  0  0  0  0  0  0  0  0
    2.5205   -4.0454    0.0000 C   0  0  0  0  0  0  0  0  0  0  0  0
    6.5101   -3.0255    0.0000 O   0  0  0  0  0  0  0  0  0  0  0  0
    7.9266    3.3780    0.0000 C   0  0  0  0  0  0  0  0  0  0  0  0
  1  2  1  0  0  0  0
  2  3  1  0  0  0  0
  3  4  1  1  0  0  0
  4  5  1  0  0  0  0
  3  6  1  0  0  0  0
  6  7  1  6  0  0  0
  7  8  1  0  0  0  0
  8  9  1  0  0  0  0
  9 10  1  0  0  0  0
  6 11  1  0  0  0  0
 11 12  1  0  0  0  0
  1 12  1  0  0  0  0
  1 13  1  1  0  0  0
 13 14  1  0  0  0  0
 15 14  1  1  0  0  0
 15 16  1  0  0  0  0
 16 17  1  0  0  0  0
 17 18  2  0  0  0  0
 17 19  1  0  0  0  0
 19 20  1  6  0  0  0
 20 21  1  0  0  0  0
 21 22  1  0  0  0  0
 22 23  1  0  0  0  0
 23 24  1  0  0  0  0
 19 24  1  0  0  0  0
 20 25  1  0  0  0  0
 25 26  2  0  0  0  0
 25 27  1  0  0  0  0
 27 28  2  0  0  0  0
 27 29  1  0  0  0  0
 29 30  1  0  0  0  0
 31 30  1  6  0  0  0
 31 32  1  0  0  0  0
 32 33  1  0  0  0  0
 33 34  1  0  0  0  0
 29 34  1  0  0  0  0
 34 35  1  1  0  0  0
 31 36  1  0  0  0  0
 36 37  1  0  0  0  0
 37 38  1  6  0  0  0
 38 39  1  0  0  0  0
 37 40  1  0  0  0  0
 40 41  2  0  0  0  0
 41 42  1  0  0  0  0
 42 43  2  0  0  0  0
 43 44  1  0  0  0  0
 44 45  2  0  0  0  0
 45 46  1  0  0  0  0
 46 47  1  0  0  0  0
 47 48  1  0  0  0  0
 48 49  1  0  0  0  0
 49 50  2  0  0  0  0
 49 51  1  0  0  0  0
 51 52  1  6  0  0  0
 52 53  1  0  0  0  0
 51 54  1  0  0  0  0
 54 55  1  6  0  0  0
 54 56  1  0  0  0  0
 56 57  2  0  0  0  0
 57 58  1  0  0  0  0
 58 59  1  0  0  0  0
 59 60  2  0  0  0  0
 59 61  1  0  0  0  0
 15 61  1  0  0  0  0
 58 62  1  1  0  0  0
 56 63  1  0  0  0  0
 48 64  1  1  0  0  0
 46 65  1  1  0  0  0
 40 66  1  0  0  0  0
 29 67  1  1  0  0  0
 14 68  1  1  0  0  0
M  END
>  <Name>
Everolimus (RAD001)

>  <CAS>
159351-69-6

>  <Formula>
C53H83NO14

>  <MolWt>
958.22 

>  <Bioactivity>
Everolimus is a derivative of the natural macrocyclic lactone sirolimus with immunosuppressant and anti-angiogenic properties. In cells, everolimus binds to the immunophilin FK Binding Protein-12 (FKBP-12) to generate an immunosuppressive complex that binds to and inhibits the activation of the mammalian Target of Rapamycin (mTOR), a key regulatory kinase. Inhibition of mTOR activation results in the inhibition of T lymphocyte activation and proliferation associated with antigen and cytokine (IL-2, IL-4, and IL-15) stimulation and the inhibition of antibody production. (NCI05)

>  <Pathways>
PI3K/Akt/mTOR Signaling

>  <Target>
mTOR inhibitor

>  <Receptor>
mTOR

>  <Reference>
1. Zhu Y, et al. Tumour Biol. 2012 Apr 11. Doi: 10.1007/s13277-012-0383-6.

$$$$
25451-15-4
  Mrv1561503291623562D          

 17 17  0  0  0  0            999 V2000
    0.7145    2.8875    0.0000 C   0  0  0  0  0  0  0  0  0  0  0  0
    0.0000    2.4750    0.0000 C   0  0  0  0  0  0  0  0  0  0  0  0
    0.0000    1.6500    0.0000 C   0  0  0  0  0  0  0  0  0  0  0  0
   -0.7145    1.2375    0.0000 C   0  0  0  0  0  0  0  0  0  0  0  0
   -1.4289    1.6500    0.0000 O   0  0  0  0  0  0  0  0  0  0  0  0
   -2.1434    1.2375    0.0000 C   0  0  0  0  0  0  0  0  0  0  0  0
   -2.8579    1.6500    0.0000 N   0  0  0  0  0  0  0  0  0  0  0  0
   -2.1434    0.4125    0.0000 O   0  0  0  0  0  0  0  0  0  0  0  0
    0.7145    1.2375    0.0000 C   0  0  0  0  0  0  0  0  0  0  0  0
    1.4289    1.6500    0.0000 O   0  0  0  0  0  0  0  0  0  0  0  0
    2.1434    1.2375    0.0000 C   0  0  0  0  0  0  0  0  0  0  0  0
    2.8579    1.6500    0.0000 N   0  0  0  0  0  0  0  0  0  0  0  0
    2.1434    0.4125    0.0000 O   0  0  0  0  0  0  0  0  0  0  0  0
   -0.7145    2.8875    0.0000 C   0  0  0  0  0  0  0  0  0  0  0  0
   -0.7145    3.7125    0.0000 C   0  0  0  0  0  0  0  0  0  0  0  0
   -0.0000    4.1250    0.0000 C   0  0  0  0  0  0  0  0  0  0  0  0
    0.7145    3.7125    0.0000 C   0  0  0  0  0  0  0  0  0  0  0  0
  1  2  2  0  0  0  0
  2  3  1  0  0  0  0
  3  4  1  0  0  0  0
  4  5  1  0  0  0  0
  5  6  1  0  0  0  0
  6  7  1  0  0  0  0
  6  8  2  0  0  0  0
  3  9  1  0  0  0  0
  9 10  1  0  0  0  0
 10 11  1  0  0  0  0
 11 12  1  0  0  0  0
 11 13  2  0  0  0  0
  2 14  1  0  0  0  0
 14 15  2  0  0  0  0
 15 16  1  0  0  0  0
 16 17  2  0  0  0  0
  1 17  1  0  0  0  0
M  END
>  <Name>
Felbamate

>  <CAS>
25451-15-4

>  <Formula>
C11H14N2O4

>  <MolWt>
238.24 

>  <Bioactivity>
Felbamate (FBM) is a potent nonsedative anticonvulsant whose clinical effect may be related to the inhibition of N-methyl-D-aspartate (NMDA) . Felbamate (Felbatol) is an anticonvulsant drug used in the treatment of epilepsy. Felbamate is used to control some types of seizures in the treatment of epilepsy. Felbamate acts on the central nervous system (CNS) to make it more difficult for seizures to start or to continue. This medicine cannot cure epilepsy and will only work to control seizures for as long as you continue to use it. 

>  <Pathways>
Neuroscience

>  <Target>
NMDAR

>  <Receptor>
NMDA Receptor

>  <Reference>
1. Kuo CC, et al. Mol Pharmacol. 2004 Feb; 65(2):370-80.

$$$$
T2293
  Mrv1561503291623562D          

 26 30  0  0  0  0            999 V2000
    0.5825    2.4328    0.0000 C   0  0  0  0  0  0  0  0  0  0  0  0
   -0.2245    2.2612    0.0000 N   0  0  0  0  0  0  0  0  0  0  0  0
   -0.5600    1.5076    0.0000 C   0  0  0  0  0  0  0  0  0  0  0  0
   -1.3805    1.5938    0.0000 C   0  0  0  0  0  0  0  0  0  0  0  0
   -1.5520    2.4008    0.0000 C   0  0  0  0  0  0  0  0  0  0  0  0
   -0.8376    2.8133    0.0000 N   0  0  0  0  0  0  0  0  0  0  0  0
   -1.9326    0.9807    0.0000 C   0  0  0  0  0  0  0  0  0  0  0  0
   -1.6776    0.1961    0.0000 N   0  0  0  0  0  0  0  0  0  0  0  0
   -2.2296   -0.4170    0.0000 N   0  0  0  0  0  0  0  0  0  0  0  0
   -3.0366   -0.2455    0.0000 C   0  0  0  0  0  0  0  0  0  0  0  0
   -3.4491   -0.9600    0.0000 N   0  0  0  0  0  0  0  0  0  0  0  0
   -2.8971   -1.5731    0.0000 N   0  0  0  0  0  0  0  0  0  0  0  0
   -2.1434   -1.2375    0.0000 C   0  0  0  0  0  0  0  0  0  0  0  0
   -1.4289   -1.6500    0.0000 S   0  0  0  0  0  0  0  0  0  0  0  0
   -0.7145   -1.2375    0.0000 C   0  0  0  0  0  0  0  0  0  0  0  0
   -0.0000   -1.6500    0.0000 C   0  0  0  0  0  0  0  0  0  0  0  0
    0.7145   -1.2375    0.0000 C   0  0  0  0  0  0  0  0  0  0  0  0
    0.7145   -0.4125    0.0000 C   0  0  0  0  0  0  0  0  0  0  0  0
   -0.0000    0.0000    0.0000 C   0  0  0  0  0  0  0  0  0  0  0  0
   -0.7145   -0.4125    0.0000 C   0  0  0  0  0  0  0  0  0  0  0  0
    1.4289    0.0000    0.0000 N   0  0  0  0  0  0  0  0  0  0  0  0
    2.1434   -0.4125    0.0000 C   0  0  0  0  0  0  0  0  0  0  0  0
    2.1434   -1.2375    0.0000 C   0  0  0  0  0  0  0  0  0  0  0  0
    1.4289   -1.6500    0.0000 C   0  0  0  0  0  0  0  0  0  0  0  0
   -3.2916    0.5391    0.0000 C   0  0  0  0  0  0  0  0  0  0  0  0
   -2.7395    1.1522    0.0000 C   0  0  0  0  0  0  0  0  0  0  0  0
  1  2  1  0  0  0  0
  2  3  1  0  0  0  0
  3  4  2  0  0  0  0
  4  5  1  0  0  0  0
  5  6  2  0  0  0  0
  2  6  1  0  0  0  0
  4  7  1  0  0  0  0
  7  8  2  0  0  0  0
  8  9  1  0  0  0  0
  9 10  1  0  0  0  0
 10 11  2  0  0  0  0
 11 12  1  0  0  0  0
 12 13  2  0  0  0  0
  9 13  1  0  0  0  0
 13 14  1  0  0  0  0
 14 15  1  0  0  0  0
 15 16  2  0  0  0  0
 16 17  1  0  0  0  0
 17 18  2  0  0  0  0
 18 19  1  0  0  0  0
 19 20  2  0  0  0  0
 15 20  1  0  0  0  0
 18 21  1  0  0  0  0
 21 22  2  0  0  0  0
 22 23  1  0  0  0  0
 23 24  2  0  0  0  0
 17 24  1  0  0  0  0
 10 25  1  0  0  0  0
 25 26  2  0  0  0  0
  7 26  1  0  0  0  0
M  END
>  <Name>
SGX-523

>  <CAS>
1022150-57-7

>  <Formula>
C18H13N7S

>  <MolWt>
359.41 

>  <Bioactivity>
SGX-523 is a selective Met inhibitor with IC50 of 4 nM, no activity to BRAFV599E, c-Raf, Abl and p38?. Phase 1.

>  <Pathways>
Tyrosine Kinase/Adaptors;Angiogensis; MAPK Signaling

>  <Target>
c-Met inhibitor; Raf inhibitor; Bcr-Abl inhibitor; p38 MAPK inhibitor

>  <Receptor>
c-Met;B-Raf/C-Raf/Abl/p38?

>  <Reference>
1. Buchanan SG, et al. Mol Cancer Ther, 2009, 8(12), 3181-3190.

$$$$

  Mrv1561503291623562D          

  0  0  0  0  0  0            999 V2000
M  END
>  <Name>
Dalbavancin HCl

>  <CAS>
102961-72-8

>  <Formula>
C88H101Cl3N10O28

>  <MolWt>
1853.17 

>  <Bioactivity>
Dalbavancin is a semisynthetic lipoglycopeptide that was designed to improve upon the natural glycopeptides currently available, vancomycin and teicoplanin. It possesses in vitro activity against a variety of Gram-positive pathogens including MRSA and methicillin-resistant Staphylococcus epidermidis (MRSE).

>  <Pathways>
Microbiology & Virology

>  <Target>
Antibacterial

>  <Receptor>
Others

>  <Reference>
1.Smith JR, Roberts KD, Rybak MJ. Infect Dis Ther. 2015 Sep;4(3):245-58.

$$$$
T2046
  Mrv1561503291623562D          

 16 17  0  0  0  0            999 V2000
    0.6674   -2.9599    0.0000 C   0  0  0  0  0  0  0  0  0  0  0  0
    0.4125   -3.7445    0.0000 N   0  0  0  0  0  0  0  0  0  0  0  0
   -0.4125   -3.7445    0.0000 C   0  0  0  0  0  0  0  0  0  0  0  0
   -0.6674   -2.9599    0.0000 C   0  0  0  0  0  0  0  0  0  0  0  0
   -0.0000   -2.4750    0.0000 N   0  0  0  0  0  0  0  0  0  0  0  0
   -0.0000   -1.6500    0.0000 C   0  0  0  0  0  0  0  0  0  0  0  0
    0.7145   -1.2375    0.0000 C   0  0  0  0  0  0  0  0  0  0  0  0
    0.7145   -0.4125    0.0000 N   0  0  0  0  0  0  0  0  0  0  0  0
   -0.0000    0.0000    0.0000 C   0  0  0  0  0  0  0  0  0  0  0  0
   -0.0000    0.8250    0.0000 C   0  0  0  0  0  0  0  0  0  0  0  0
    0.7145    1.2375    0.0000 O   0  0  0  0  0  0  0  0  0  0  0  0
    1.4289    0.8250    0.0000 C   0  0  0  0  0  0  0  0  0  0  0  0
    1.4289    0.0000    0.0000 C   0  0  0  0  0  0  0  0  0  0  0  0
   -1.4521   -2.7050    0.0000 N   0  3  0  0  0  0  0  0  0  0  0  0
   -2.0652   -3.2570    0.0000 O   0  0  0  0  0  0  0  0  0  0  0  0
   -1.6236   -1.8980    0.0000 O   0  5  0  0  0  0  0  0  0  0  0  0
  1  2  2  0  0  0  0
  2  3  1  0  0  0  0
  3  4  2  0  0  0  0
  4  5  1  0  0  0  0
  1  5  1  0  0  0  0
  5  6  1  0  0  0  0
  6  7  1  0  0  0  0
  7  8  1  0  0  0  0
  8  9  1  0  0  0  0
  9 10  1  0  0  0  0
 10 11  1  0  0  0  0
 11 12  1  0  0  0  0
 12 13  1  0  0  0  0
  8 13  1  0  0  0  0
  4 14  1  0  0  0  0
 14 15  2  0  0  0  0
 14 16  1  0  0  0  0
M  CHG  2  14   1  16  -1
M  END
>  <Name>
Nimorazole

>  <CAS>
6506-37-2

>  <Formula>
C9H14N4O3

>  <MolWt>
226.23 

>  <Bioactivity>
Nimorazole is a nitroimidazole anti-infective.

>  <Pathways>
Microbiology & Virology 

>  <Target>
Antiparasitic

>  <Receptor>
Antiparasitic

>  <Reference>
1. Overgaard J, et al. Radiother Oncol, 1998. 46(2): p. 135-46.

$$$$
92-61-5
  Mrv1561503291623562D          

 14 15  0  0  0  0            999 V2000
   -0.0000    0.0000    0.0000 C   0  0  0  0  0  0  0  0  0  0  0  0
   -0.7145   -0.4125    0.0000 C   0  0  0  0  0  0  0  0  0  0  0  0
   -1.4289    0.0000    0.0000 O   0  0  0  0  0  0  0  0  0  0  0  0
   -2.1434   -0.4125    0.0000 C   0  0  0  0  0  0  0  0  0  0  0  0
   -0.7145   -1.2375    0.0000 C   0  0  0  0  0  0  0  0  0  0  0  0
   -0.0000   -1.6500    0.0000 C   0  0  0  0  0  0  0  0  0  0  0  0
    0.7145   -1.2375    0.0000 C   0  0  0  0  0  0  0  0  0  0  0  0
    0.7145   -0.4125    0.0000 C   0  0  0  0  0  0  0  0  0  0  0  0
    1.4289    0.0000    0.0000 C   0  0  0  0  0  0  0  0  0  0  0  0
    2.1434   -0.4125    0.0000 C   0  0  0  0  0  0  0  0  0  0  0  0
    2.1434   -1.2375    0.0000 C   0  0  0  0  0  0  0  0  0  0  0  0
    1.4289   -1.6500    0.0000 O   0  0  0  0  0  0  0  0  0  0  0  0
    2.8579   -1.6500    0.0000 O   0  0  0  0  0  0  0  0  0  0  0  0
   -1.4289   -1.6500    0.0000 O   0  0  0  0  0  0  0  0  0  0  0  0
  1  2  2  0  0  0  0
  2  3  1  0  0  0  0
  3  4  1  0  0  0  0
  2  5  1  0  0  0  0
  5  6  2  0  0  0  0
  6  7  1  0  0  0  0
  7  8  2  0  0  0  0
  1  8  1  0  0  0  0
  8  9  1  0  0  0  0
  9 10  2  0  0  0  0
 10 11  1  0  0  0  0
 11 12  1  0  0  0  0
  7 12  1  0  0  0  0
 11 13  2  0  0  0  0
  5 14  1  0  0  0  0
M  END
>  <Name>
Scopoletin

>  <CAS>
92-61-5

>  <Formula>
C10H8O4

>  <MolWt>
192.17 

>  <Bioactivity>
Plant growth factor derived from the root of Scopolia carniolica or Scopolia japonica.

>  <Pathways>
Neuroscience

>  <Target>
AChR antagonist

>  <Receptor>
Muscarinic AChR

>  <Reference>
1. Lee HI, Lee MK. Toxicol Lett. 2015 Sep 17;237(3):210-8. 

$$$$
569-57-3
  Mrv1561503291623562D          

 27 29  0  0  0  0            999 V2000
   -2.1434    1.2375    0.0000 C   0  0  0  0  0  0  0  0  0  0  0  0
   -1.4289    0.8250    0.0000 O   0  0  0  0  0  0  0  0  0  0  0  0
   -1.4289    0.0000    0.0000 C   0  0  0  0  0  0  0  0  0  0  0  0
   -0.7145   -0.4125    0.0000 C   0  0  0  0  0  0  0  0  0  0  0  0
   -0.7145   -1.2375    0.0000 C   0  0  0  0  0  0  0  0  0  0  0  0
   -1.4289   -1.6500    0.0000 C   0  0  0  0  0  0  0  0  0  0  0  0
   -2.1434   -1.2375    0.0000 C   0  0  0  0  0  0  0  0  0  0  0  0
   -2.1434   -0.4125    0.0000 C   0  0  0  0  0  0  0  0  0  0  0  0
   -1.4289   -2.4750    0.0000 C   0  0  0  0  0  0  0  0  0  0  0  0
   -2.1434   -2.8875    0.0000 Cl  0  0  0  0  0  0  0  0  0  0  0  0
   -0.7145   -2.8875    0.0000 C   0  0  0  0  0  0  0  0  0  0  0  0
   -0.7145   -3.7125    0.0000 C   0  0  0  0  0  0  0  0  0  0  0  0
   -0.0000   -4.1250    0.0000 C   0  0  0  0  0  0  0  0  0  0  0  0
   -0.0000   -4.9500    0.0000 C   0  0  0  0  0  0  0  0  0  0  0  0
   -0.7145   -5.3625    0.0000 C   0  0  0  0  0  0  0  0  0  0  0  0
   -0.7145   -6.1875    0.0000 O   0  0  0  0  0  0  0  0  0  0  0  0
   -0.0000   -6.6000    0.0000 C   0  0  0  0  0  0  0  0  0  0  0  0
   -1.4289   -4.9500    0.0000 C   0  0  0  0  0  0  0  0  0  0  0  0
   -1.4289   -4.1250    0.0000 C   0  0  0  0  0  0  0  0  0  0  0  0
   -0.0000   -2.4750    0.0000 C   0  0  0  0  0  0  0  0  0  0  0  0
   -0.0000   -1.6500    0.0000 C   0  0  0  0  0  0  0  0  0  0  0  0
    0.7145   -1.2375    0.0000 C   0  0  0  0  0  0  0  0  0  0  0  0
    1.4289   -1.6500    0.0000 C   0  0  0  0  0  0  0  0  0  0  0  0
    2.1434   -1.2375    0.0000 O   0  0  0  0  0  0  0  0  0  0  0  0
    2.8579   -1.6500    0.0000 C   0  0  0  0  0  0  0  0  0  0  0  0
    1.4289   -2.4750    0.0000 C   0  0  0  0  0  0  0  0  0  0  0  0
    0.7145   -2.8875    0.0000 C   0  0  0  0  0  0  0  0  0  0  0  0
  1  2  1  0  0  0  0
  2  3  1  0  0  0  0
  3  4  4  0  0  0  0
  4  5  4  0  0  0  0
  5  6  4  0  0  0  0
  6  7  4  0  0  0  0
  7  8  4  0  0  0  0
  3  8  4  0  0  0  0
  6  9  1  0  0  0  0
  9 10  1  0  0  0  0
  9 11  2  0  0  0  0
 11 12  1  0  0  0  0
 12 13  4  0  0  0  0
 13 14  4  0  0  0  0
 14 15  4  0  0  0  0
 15 16  1  0  0  0  0
 16 17  1  0  0  0  0
 15 18  4  0  0  0  0
 18 19  4  0  0  0  0
 12 19  4  0  0  0  0
 11 20  1  0  0  0  0
 20 21  4  0  0  0  0
 21 22  4  0  0  0  0
 22 23  4  0  0  0  0
 23 24  1  0  0  0  0
 24 25  1  0  0  0  0
 23 26  4  0  0  0  0
 26 27  4  0  0  0  0
 20 27  4  0  0  0  0
M  END
>  <Name>
Chlorotrianisene

>  <CAS>
569-57-3

>  <Formula>
C23H21ClO3

>  <MolWt>
380.86 

>  <Bioactivity>
Chlorotrianisene is a powerful synthetic, non-steroidal estrogen.

>  <Pathways>
Endocrinology/ Hormones

>  <Target>
Estrogen/Progestogen Receptor agonist

>  <Receptor>
Estrogen/progestogen Receptor

>  <Reference>
1. Kupfer D, Bulger WH. FEBS Lett. 1990 Feb 12;261(1):59-62.

$$$$
T1797
  Mrv1561503291623562D          

 46 49  0  0  0  0            999 V2000
   -5.1543   -2.1925    0.0000 C   0  0  0  0  0  0  0  0  0  0  0  0
   -4.4399   -1.7800    0.0000 O   0  0  0  0  0  0  0  0  0  0  0  0
   -3.7254   -2.1925    0.0000 C   0  0  0  0  0  0  0  0  0  0  0  0
   -3.0109   -1.7800    0.0000 C   0  0  0  0  0  0  0  0  0  0  0  0
   -2.2964   -2.1925    0.0000 C   0  0  0  0  0  0  0  0  0  0  0  0
   -1.5820   -1.7800    0.0000 C   0  0  0  0  0  0  0  0  0  0  0  0
   -0.8675   -2.1925    0.0000 C   0  0  0  0  0  0  0  0  0  0  0  0
   -0.8675   -3.0175    0.0000 C   0  0  0  0  0  0  0  0  0  0  0  0
   -1.5820   -3.4300    0.0000 N   0  0  0  0  0  0  0  0  0  0  0  0
   -2.2964   -3.0175    0.0000 C   0  0  0  0  0  0  0  0  0  0  0  0
   -3.0109   -3.4300    0.0000 C   0  0  0  0  0  0  0  0  0  0  0  0
   -3.7254   -3.0175    0.0000 C   0  0  0  0  0  0  0  0  0  0  0  0
   -4.4399   -3.4300    0.0000 O   0  0  0  0  0  0  0  0  0  0  0  0
   -4.4399   -4.2550    0.0000 C   0  0  0  0  0  0  0  0  0  0  0  0
   -1.5820   -0.9550    0.0000 O   0  0  0  0  0  0  0  0  0  0  0  0
   -0.8675   -0.5425    0.0000 C   0  0  0  0  0  0  0  0  0  0  0  0
   -0.8675    0.2825    0.0000 C   0  0  0  0  0  0  0  0  0  0  0  0
   -0.1530    0.6950    0.0000 C   0  0  0  0  0  0  0  0  0  0  0  0
    0.5614    0.2825    0.0000 C   0  0  0  0  0  0  0  0  0  0  0  0
    0.5614   -0.5425    0.0000 C   0  0  0  0  0  0  0  0  0  0  0  0
   -0.1530   -0.9550    0.0000 C   0  0  0  0  0  0  0  0  0  0  0  0
    1.2759    0.6950    0.0000 N   0  0  0  0  0  0  0  0  0  0  0  0
    1.2759    1.5200    0.0000 C   0  0  0  0  0  0  0  0  0  0  0  0
    0.5614    1.9325    0.0000 O   0  0  0  0  0  0  0  0  0  0  0  0
    1.9904    1.9325    0.0000 C   0  0  0  0  0  0  0  0  0  0  0  0
    2.8028    2.0758    0.0000 C   0  0  0  0  0  0  0  0  0  0  0  0
    2.5207    1.3006    0.0000 C   0  0  0  0  0  0  0  0  0  0  0  0
    1.7082    2.7078    0.0000 C   0  0  0  0  0  0  0  0  0  0  0  0
    0.8957    2.8511    0.0000 O   0  0  0  0  0  0  0  0  0  0  0  0
    2.2385    3.3398    0.0000 N   0  0  0  0  0  0  0  0  0  0  0  0
    3.0510    3.1965    0.0000 C   0  0  0  0  0  0  0  0  0  0  0  0
    3.5813    3.8285    0.0000 C   0  0  0  0  0  0  0  0  0  0  0  0
    4.3937    3.6852    0.0000 C   0  0  0  0  0  0  0  0  0  0  0  0
    4.6759    2.9100    0.0000 C   0  0  0  0  0  0  0  0  0  0  0  0
    4.1456    2.2780    0.0000 C   0  0  0  0  0  0  0  0  0  0  0  0
    3.3331    2.4213    0.0000 C   0  0  0  0  0  0  0  0  0  0  0  0
    5.4884    2.7667    0.0000 F   0  0  0  0  0  0  0  0  0  0  0  0
    9.3996    0.3208    0.0000 C   0  0  0  0  0  0  0  0  0  0  0  0
    8.6852   -0.0917    0.0000 C   0  0  0  0  0  0  0  0  0  0  0  0
    7.9707    0.3208    0.0000 C   0  0  0  0  0  0  0  0  0  0  0  0
    7.2562   -0.0917    0.0000 O   0  0  0  0  0  0  0  0  0  0  0  0
    7.9707    1.1458    0.0000 O   0  0  0  0  0  0  0  0  0  0  0  0
    8.6852   -0.9167    0.0000 O   0  0  0  0  0  0  0  0  0  0  0  0
   10.1141   -0.0917    0.0000 C   0  0  0  0  0  0  0  0  0  0  0  0
   10.8286    0.3208    0.0000 O   0  0  0  0  0  0  0  0  0  0  0  0
   10.1141   -0.9167    0.0000 O   0  0  0  0  0  0  0  0  0  0  0  0
  1  2  1  0  0  0  0
  2  3  1  0  0  0  0
  3  4  2  0  0  0  0
  4  5  1  0  0  0  0
  5  6  2  0  0  0  0
  6  7  1  0  0  0  0
  7  8  2  0  0  0  0
  8  9  1  0  0  0  0
  9 10  2  0  0  0  0
  5 10  1  0  0  0  0
 10 11  1  0  0  0  0
 11 12  2  0  0  0  0
  3 12  1  0  0  0  0
 12 13  1  0  0  0  0
 13 14  1  0  0  0  0
  6 15  1  0  0  0  0
 15 16  1  0  0  0  0
 16 17  2  0  0  0  0
 17 18  1  0  0  0  0
 18 19  2  0  0  0  0
 19 20  1  0  0  0  0
 20 21  2  0  0  0  0
 16 21  1  0  0  0  0
 19 22  1  0  0  0  0
 22 23  1  0  0  0  0
 23 24  2  0  0  0  0
 23 25  1  0  0  0  0
 25 26  1  0  0  0  0
 26 27  1  0  0  0  0
 25 27  1  0  0  0  0
 25 28  1  0  0  0  0
 28 29  2  0  0  0  0
 28 30  1  0  0  0  0
 30 31  1  0  0  0  0
 31 32  2  0  0  0  0
 32 33  1  0  0  0  0
 33 34  2  0  0  0  0
 34 35  1  0  0  0  0
 35 36  2  0  0  0  0
 31 36  1  0  0  0  0
 34 37  1  0  0  0  0
 38 39  1  0  0  0  0
 39 40  1  0  0  0  0
 40 41  2  0  0  0  0
 40 42  1  0  0  0  0
 39 43  1  0  0  0  0
 38 44  1  0  0  0  0
 44 45  2  0  0  0  0
 44 46  1  0  0  0  0
M  END
>  <Name>
XL184(Cabozantinib malate)

>  <CAS>
1140909-48-3

>  <Formula>
C32H30FN3O10

>  <MolWt>
635.59 

>  <Bioactivity>
Cabozantinib S-malate is the s-malate salt form of cabozantinib, an orally bioavailable, small molecule receptor tyrosine kinase (RTK) inhibitor with potential antineoplastic activity. Cabozantinib strongly binds to and inhibits several RTKs, which are often overexpressed in a variety of cancer cell types, including hepatocyte growth factor receptor (MET), RET (rearranged during transfection), vascular endothelial growth factor receptor types 1 (VEGFR-1), 2 (VEGFR-2), and 3 (VEGFR-3), mast/stem cell growth factor (KIT), FMS-like tyrosine kinase 3 (FLT-3), TIE-2 (TEK tyrosine kinase, endothelial), tropomyosin-related kinase B (TRKB) and AXL. This may result in an inhibition of both tumor growth and angiogenesis, and eventually lead to tumor regression.

>  <Pathways>
Tyrosine Kinase/Adaptors

>  <Target>
VEGFR inhibitor

>  <Receptor>
VEGFR3/FLT4

>  <Reference>
1. You WK, et al. Cancer Res, 2011, 71(14), 4758-4768.

$$$$
54-11-5
  Mrv1561503291623562D          

 12 13  0  0  1  0            999 V2000
    0.7145   -1.2375    0.0000 C   0  0  1  0  0  0  0  0  0  0  0  0
    0.7145   -0.4125    0.0000 C   0  0  0  0  0  0  0  0  0  0  0  0
   -0.0000   -0.0000    0.0000 C   0  0  0  0  0  0  0  0  0  0  0  0
   -0.0000    0.8250    0.0000 N   0  0  0  0  0  0  0  0  0  0  0  0
    0.7145    1.2375    0.0000 C   0  0  0  0  0  0  0  0  0  0  0  0
    1.4289    0.8250    0.0000 C   0  0  0  0  0  0  0  0  0  0  0  0
    1.4289   -0.0000    0.0000 C   0  0  0  0  0  0  0  0  0  0  0  0
    1.3819   -1.7224    0.0000 N   0  0  0  0  0  0  0  0  0  0  0  0
    1.1270   -2.5070    0.0000 C   0  0  0  0  0  0  0  0  0  0  0  0
    0.3020   -2.5070    0.0000 C   0  0  0  0  0  0  0  0  0  0  0  0
    0.0470   -1.7224    0.0000 C   0  0  0  0  0  0  0  0  0  0  0  0
    2.1665   -1.4675    0.0000 C   0  0  0  0  0  0  0  0  0  0  0  0
  1  2  1  1  0  0  0
  2  3  2  0  0  0  0
  3  4  1  0  0  0  0
  4  5  2  0  0  0  0
  5  6  1  0  0  0  0
  6  7  2  0  0  0  0
  2  7  1  0  0  0  0
  1  8  1  0  0  0  0
  8  9  1  0  0  0  0
  9 10  1  0  0  0  0
 10 11  1  0  0  0  0
  1 11  1  0  0  0  0
  8 12  1  0  0  0  0
M  END
>  <Name>
Nicotine

>  <CAS>
54-11-5

>  <Formula>
C10H14N2

>  <MolWt>
162.23 

>  <Bioactivity>
Extracted from Nicotiana sanderae;Store the product in sealed, cool and dry condition

>  <Pathways>
Neuroscience

>  <Target>
AChR agonist

>  <Receptor>
Nicotinic AChR 

>  <Reference>
1. Manuela R, Mario M, Vincenzo R, Filippo R. Life Sci. 2015 Aug 15;135:49-54. 

$$$$
548-73-2
  Mrv1561503291623562D          

 28 31  0  0  0  0            999 V2000
    3.2789    1.2375    0.0000 C   0  0  0  0  0  0  0  0  0  0  0  0
    3.9934    0.8250    0.0000 C   0  0  0  0  0  0  0  0  0  0  0  0
    3.9934    0.0000    0.0000 C   0  0  0  0  0  0  0  0  0  0  0  0
    3.2789   -0.4125    0.0000 C   0  0  0  0  0  0  0  0  0  0  0  0
    2.5645   -0.0000    0.0000 C   0  0  0  0  0  0  0  0  0  0  0  0
    2.5645    0.8250    0.0000 C   0  0  0  0  0  0  0  0  0  0  0  0
    1.7798    1.0799    0.0000 N   0  0  0  0  0  0  0  0  0  0  0  0
    1.5249    1.8646    0.0000 C   0  0  0  0  0  0  0  0  0  0  0  0
    0.7179    2.0361    0.0000 C   0  0  0  0  0  0  0  0  0  0  0  0
    0.4630    2.8207    0.0000 C   0  0  0  0  0  0  0  0  0  0  0  0
    1.0150    3.4338    0.0000 N   0  0  0  0  0  0  0  0  0  0  0  0
    1.8220    3.2623    0.0000 C   0  0  0  0  0  0  0  0  0  0  0  0
    2.0769    2.4777    0.0000 C   0  0  0  0  0  0  0  0  0  0  0  0
    0.7601    4.2184    0.0000 C   0  0  0  0  0  0  0  0  0  0  0  0
   -0.0469    4.3900    0.0000 C   0  0  0  0  0  0  0  0  0  0  0  0
   -0.3018    5.1746    0.0000 C   0  0  0  0  0  0  0  0  0  0  0  0
   -1.1088    5.3461    0.0000 C   0  0  0  0  0  0  0  0  0  0  0  0
   -1.3637    6.1307    0.0000 C   0  0  0  0  0  0  0  0  0  0  0  0
   -2.1707    6.3023    0.0000 C   0  0  0  0  0  0  0  0  0  0  0  0
   -2.4257    7.0869    0.0000 C   0  0  0  0  0  0  0  0  0  0  0  0
   -1.8736    7.7000    0.0000 C   0  0  0  0  0  0  0  0  0  0  0  0
   -1.0666    7.5284    0.0000 C   0  0  0  0  0  0  0  0  0  0  0  0
   -0.8117    6.7438    0.0000 C   0  0  0  0  0  0  0  0  0  0  0  0
   -2.1286    8.4846    0.0000 F   0  0  0  0  0  0  0  0  0  0  0  0
   -1.6608    4.7330    0.0000 O   0  0  0  0  0  0  0  0  0  0  0  0
    1.2949    0.4125    0.0000 C   0  0  0  0  0  0  0  0  0  0  0  0
    1.7798   -0.2549    0.0000 N   0  0  0  0  0  0  0  0  0  0  0  0
    0.4699    0.4125    0.0000 O   0  0  0  0  0  0  0  0  0  0  0  0
  1  2  2  0  0  0  0
  2  3  1  0  0  0  0
  3  4  2  0  0  0  0
  4  5  1  0  0  0  0
  5  6  2  0  0  0  0
  1  6  1  0  0  0  0
  6  7  1  0  0  0  0
  7  8  1  0  0  0  0
  8  9  2  0  0  0  0
  9 10  1  0  0  0  0
 10 11  1  0  0  0  0
 11 12  1  0  0  0  0
 12 13  1  0  0  0  0
  8 13  1  0  0  0  0
 11 14  1  0  0  0  0
 14 15  1  0  0  0  0
 15 16  1  0  0  0  0
 16 17  1  0  0  0  0
 17 18  1  0  0  0  0
 18 19  2  0  0  0  0
 19 20  1  0  0  0  0
 20 21  2  0  0  0  0
 21 22  1  0  0  0  0
 22 23  2  0  0  0  0
 18 23  1  0  0  0  0
 21 24  1  0  0  0  0
 17 25  2  0  0  0  0
  7 26  1  0  0  0  0
 26 27  1  0  0  0  0
  5 27  1  0  0  0  0
 26 28  2  0  0  0  0
M  END
>  <Name>
Droperidol

>  <CAS>
548-73-2

>  <Formula>
C22H22FN3O2

>  <MolWt>
379.43 

>  <Bioactivity>
Droperidol is a Dopamine-2 Receptor Antagonist.

>  <Pathways>
Neuroscience

>  <Target>
Dopamine Receptor antagonist

>  <Receptor>
D2DR

>  <Reference>
1. Thomas MC, et al. Ann Pharmacother. 2015 Feb;49(2):233-40.

$$$$
26807-65-8
  Mrv1561503291623562D          

 24 26  0  0  0  0            999 V2000
    3.2789    1.2375    0.0000 C   0  0  0  0  0  0  0  0  0  0  0  0
    3.9934    0.8250    0.0000 C   0  0  0  0  0  0  0  0  0  0  0  0
    3.9934    0.0000    0.0000 C   0  0  0  0  0  0  0  0  0  0  0  0
    3.2789   -0.4125    0.0000 C   0  0  0  0  0  0  0  0  0  0  0  0
    2.5645   -0.0000    0.0000 C   0  0  0  0  0  0  0  0  0  0  0  0
    2.5645    0.8250    0.0000 C   0  0  0  0  0  0  0  0  0  0  0  0
    1.7798    1.0799    0.0000 N   0  0  0  0  0  0  0  0  0  0  0  0
    1.2949    0.4125    0.0000 C   0  0  0  0  0  0  0  0  0  0  0  0
    0.4699    0.4125    0.0000 C   0  0  0  0  0  0  0  0  0  0  0  0
    1.7798   -0.2549    0.0000 C   0  0  0  0  0  0  0  0  0  0  0  0
    1.5249    1.8646    0.0000 N   0  0  0  0  0  0  0  0  0  0  0  0
    2.0769    2.4777    0.0000 C   0  0  0  0  0  0  0  0  0  0  0  0
    1.8220    3.2623    0.0000 C   0  0  0  0  0  0  0  0  0  0  0  0
    1.0150    3.4338    0.0000 C   0  0  0  0  0  0  0  0  0  0  0  0
    0.7601    4.2184    0.0000 C   0  0  0  0  0  0  0  0  0  0  0  0
    1.3121    4.8315    0.0000 C   0  0  0  0  0  0  0  0  0  0  0  0
    2.1191    4.6600    0.0000 C   0  0  0  0  0  0  0  0  0  0  0  0
    2.3740    3.8754    0.0000 C   0  0  0  0  0  0  0  0  0  0  0  0
    2.6711    5.2731    0.0000 S   0  0  0  0  0  0  0  0  0  0  0  0
    3.2231    5.8862    0.0000 N   0  0  0  0  0  0  0  0  0  0  0  0
    3.2842    4.7211    0.0000 O   0  0  0  0  0  0  0  0  0  0  0  0
    2.0580    5.8251    0.0000 O   0  0  0  0  0  0  0  0  0  0  0  0
    1.0572    5.6161    0.0000 Cl  0  0  0  0  0  0  0  0  0  0  0  0
    2.8839    2.3061    0.0000 O   0  0  0  0  0  0  0  0  0  0  0  0
  1  2  2  0  0  0  0
  2  3  1  0  0  0  0
  3  4  2  0  0  0  0
  4  5  1  0  0  0  0
  5  6  2  0  0  0  0
  1  6  1  0  0  0  0
  6  7  1  0  0  0  0
  7  8  1  0  0  0  0
  8  9  1  0  0  0  0
  8 10  1  0  0  0  0
  5 10  1  0  0  0  0
  7 11  1  0  0  0  0
 11 12  1  0  0  0  0
 12 13  1  0  0  0  0
 13 14  2  0  0  0  0
 14 15  1  0  0  0  0
 15 16  2  0  0  0  0
 16 17  1  0  0  0  0
 17 18  2  0  0  0  0
 13 18  1  0  0  0  0
 17 19  1  0  0  0  0
 19 20  1  0  0  0  0
 19 21  2  0  0  0  0
 19 22  2  0  0  0  0
 16 23  1  0  0  0  0
 12 24  2  0  0  0  0
M  END
>  <Name>
Indapamide

>  <CAS>
26807-65-8

>  <Formula>
C16H16ClN3O3S

>  <MolWt>
365.84 

>  <Bioactivity>
Indapamide is a non-thiazide sulphonamide diuretic compound, generally used in the treatment of hypertension, as well as decompensated cardiac failure.

>  <Pathways>
Membrane Transporter/Ion Channel

>  <Target>
Potassium Channel inhibitor

>  <Receptor>
Potassium Channel

>  <Reference>
1. Pedersen EB, et al. Eur J Clin Pharmacol, 1984. 26(5): p. 543-7.

$$$$
T2122
  Mrv1561503291623562D          

 23 23  0  0  0  0            999 V2000
    3.5724   -6.1875    0.0000 B   0  0  0  0  0  0  0  0  0  0  0  0
    3.5724   -5.3625    0.0000 C   0  0  0  0  0  0  0  0  0  0  0  0
    2.8579   -4.9500    0.0000 C   0  0  0  0  0  0  0  0  0  0  0  0
    2.1434   -5.3625    0.0000 C   0  0  0  0  0  0  0  0  0  0  0  0
    1.4289   -4.9500    0.0000 C   0  0  0  0  0  0  0  0  0  0  0  0
    2.1434   -6.1875    0.0000 C   0  0  0  0  0  0  0  0  0  0  0  0
    4.2868   -4.9500    0.0000 N   0  0  0  0  0  0  0  0  0  0  0  0
    5.0013   -5.3625    0.0000 C   0  0  0  0  0  0  0  0  0  0  0  0
    5.0013   -6.1875    0.0000 O   0  0  0  0  0  0  0  0  0  0  0  0
    5.7158   -4.9500    0.0000 C   0  0  0  0  0  0  0  0  0  0  0  0
    6.4302   -5.3625    0.0000 N   0  0  0  0  0  0  0  0  0  0  0  0
    7.1447   -4.9500    0.0000 C   0  0  0  0  0  0  0  0  0  0  0  0
    7.1447   -4.1250    0.0000 O   0  0  0  0  0  0  0  0  0  0  0  0
    7.8592   -5.3625    0.0000 C   0  0  0  0  0  0  0  0  0  0  0  0
    8.5737   -4.9500    0.0000 C   0  0  0  0  0  0  0  0  0  0  0  0
    9.2881   -5.3625    0.0000 C   0  0  0  0  0  0  0  0  0  0  0  0
    9.2881   -6.1875    0.0000 C   0  0  0  0  0  0  0  0  0  0  0  0
    8.5737   -6.6000    0.0000 C   0  0  0  0  0  0  0  0  0  0  0  0
    7.8592   -6.1875    0.0000 C   0  0  0  0  0  0  0  0  0  0  0  0
    8.5737   -7.4250    0.0000 Cl  0  0  0  0  0  0  0  0  0  0  0  0
    8.5737   -4.1250    0.0000 Cl  0  0  0  0  0  0  0  0  0  0  0  0
    4.2868   -6.6000    0.0000 O   0  0  0  0  0  0  0  0  0  0  0  0
    2.8579   -6.6000    0.0000 O   0  0  0  0  0  0  0  0  0  0  0  0
  1  2  1  0  0  0  0
  2  3  1  0  0  0  0
  3  4  1  0  0  0  0
  4  5  1  0  0  0  0
  4  6  1  0  0  0  0
  2  7  1  0  0  0  0
  7  8  1  0  0  0  0
  8  9  2  0  0  0  0
  8 10  1  0  0  0  0
 10 11  1  0  0  0  0
 11 12  1  0  0  0  0
 12 13  2  0  0  0  0
 12 14  1  0  0  0  0
 14 15  2  0  0  0  0
 15 16  1  0  0  0  0
 16 17  2  0  0  0  0
 17 18  1  0  0  0  0
 18 19  2  0  0  0  0
 14 19  1  0  0  0  0
 18 20  1  0  0  0  0
 15 21  1  0  0  0  0
  1 22  1  0  0  0  0
  1 23  1  0  0  0  0
M  END
>  <Name>
MLN2238(Ixazomib)

>  <CAS>
1072833-77-2

>  <Formula>
C14H19BCl2N2O4

>  <MolWt>
361.03 

>  <Bioactivity>
MLN2238 inhibits the chymotrypsin-like proteolytic (?5) site of the 20S proteasome with IC50 and Ki of 3.4 nM and 0.93 nM in cell-free assays, respectively, also inhibits the caspase-like (?1) and trypsin-like (?2) proteolytic sites, with IC50 of 31 and 3500 nM. Phase 3.

>  <Pathways>
Proteases/Proteasome

>  <Target>
Proteasome inhibitor

>  <Receptor>
20S proteasome

>  <Reference>
1. Kupperman E, et al. Cancer Res, 2010, 70(5), 1970-80

$$$$
69659-80-9
  Mrv1561503291623562D          

 27 29  0  0  0  0            999 V2000
    1.8399    0.4067    0.0000 C   0  0  0  0  0  0  0  0  0  0  0  0
    2.6520    0.2615    0.0000 C   0  0  0  0  0  0  0  0  0  0  0  0
    3.1838    0.8922    0.0000 C   0  0  0  0  0  0  0  0  0  0  0  0
    2.9035    1.6682    0.0000 C   0  0  0  0  0  0  0  0  0  0  0  0
    2.0914    1.8134    0.0000 C   0  0  0  0  0  0  0  0  0  0  0  0
    1.5596    1.1827    0.0000 C   0  0  0  0  0  0  0  0  0  0  0  0
    0.7475    1.3279    0.0000 C   0  0  0  0  0  0  0  0  0  0  0  0
    0.4672    2.1038    0.0000 C   0  0  0  0  0  0  0  0  0  0  0  0
   -0.3574    2.0770    0.0000 C   0  0  0  0  0  0  0  0  0  0  0  0
   -0.5867    1.2845    0.0000 C   0  0  0  0  0  0  0  0  0  0  0  0
   -1.3626    1.0042    0.0000 S   0  0  0  0  0  0  0  0  0  0  0  0
   -2.1385    0.7239    0.0000 O   0  5  0  0  0  0  0  0  0  0  0  0
   -1.6429    1.7801    0.0000 O   0  0  0  0  0  0  0  0  0  0  0  0
   -1.0823    0.2283    0.0000 O   0  0  0  0  0  0  0  0  0  0  0  0
    0.0962    0.8215    0.0000 O   0  0  0  0  0  0  0  0  0  0  0  0
   -0.8637    2.7283    0.0000 C   0  0  0  0  0  0  0  0  0  0  0  0
    0.9990    2.7345    0.0000 C   0  0  0  0  0  0  0  0  0  0  0  0
    0.7187    3.5104    0.0000 O   0  0  0  0  0  0  0  0  0  0  0  0
    1.8111    2.5893    0.0000 C   0  0  0  0  0  0  0  0  0  0  0  0
    2.3429    3.2200    0.0000 O   0  0  0  0  0  0  0  0  0  0  0  0
    3.4354    2.2989    0.0000 C   0  0  0  0  0  0  0  0  0  0  0  0
    4.2475    2.1537    0.0000 C   0  0  0  0  0  0  0  0  0  0  0  0
    4.5278    1.3777    0.0000 C   0  0  0  0  0  0  0  0  0  0  0  0
    3.9960    0.7470    0.0000 C   0  0  0  0  0  0  0  0  0  0  0  0
    4.6077    0.1935    0.0000 C   0  0  0  0  0  0  0  0  0  0  0  0
    3.8792   -0.0697    0.0000 C   0  0  0  0  0  0  0  0  0  0  0  0
   -2.9145    0.4436    0.0000 Na  0  3  0  0  0  0  0  0  0  0  0  0
  1  2  2  0  0  0  0
  2  3  1  0  0  0  0
  3  4  2  0  0  0  0
  4  5  1  0  0  0  0
  5  6  2  0  0  0  0
  1  6  1  0  0  0  0
  6  7  1  0  0  0  0
  7  8  2  0  0  0  0
  8  9  1  0  0  0  0
  9 10  2  0  0  0  0
 10 11  1  0  0  0  0
 11 12  1  0  0  0  0
 11 13  2  0  0  0  0
 11 14  2  0  0  0  0
 10 15  1  0  0  0  0
  7 15  1  0  0  0  0
  9 16  1  0  0  0  0
  8 17  1  0  0  0  0
 17 18  2  0  0  0  0
 17 19  1  0  0  0  0
  5 19  1  0  0  0  0
 19 20  2  0  0  0  0
  4 21  1  0  0  0  0
 21 22  1  0  0  0  0
 22 23  1  0  0  0  0
 23 24  1  0  0  0  0
  3 24  1  0  0  0  0
 24 25  1  0  0  0  0
 24 26  1  0  0  0  0
M  CHG  2  12  -1  27   1
M  END
>  <Name>
Tanshinone IIA-sulfonic sodium

>  <CAS>
69659-80-9

>  <Formula>
C19H17O6S.Na

>  <MolWt>
396.39 

>  <Bioactivity>
Extracted from Savia miltiorrhiza;Suitability:Water;Store the product in sealed,cool and dry condition

>  <Pathways>
Others

>  <Target>
Others

>  <Receptor>
Others

>  <Reference>
1. Weng YS, et al. Am J Chin Med. 2015 Nov 30:1550089. 

$$$$
T2328
  Mrv1561503291623562D          

 39 43  0  0  0  0            999 V2000
    0.7145   -3.7125    0.0000 C   0  0  0  0  0  0  0  0  0  0  0  0
    1.4289   -4.1250    0.0000 C   0  0  0  0  0  0  0  0  0  0  0  0
    2.1434   -3.7125    0.0000 C   0  0  0  0  0  0  0  0  0  0  0  0
    2.8579   -4.1250    0.0000 C   0  0  0  0  0  0  0  0  0  0  0  0
    2.8579   -4.9500    0.0000 C   0  0  0  0  0  0  0  0  0  0  0  0
    2.1434   -5.3625    0.0000 C   0  0  0  0  0  0  0  0  0  0  0  0
    1.4289   -4.9500    0.0000 C   0  0  0  0  0  0  0  0  0  0  0  0
    3.5724   -5.3625    0.0000 C   0  0  0  0  0  0  0  0  0  0  0  0
    4.2868   -4.9500    0.0000 O   0  0  0  0  0  0  0  0  0  0  0  0
    3.5724   -6.1875    0.0000 N   0  0  0  0  0  0  0  0  0  0  0  0
    4.2868   -6.6000    0.0000 C   0  0  0  0  0  0  0  0  0  0  0  0
    5.0013   -6.1875    0.0000 C   0  0  0  0  0  0  0  0  0  0  0  0
    5.7158   -6.6000    0.0000 C   0  0  0  0  0  0  0  0  0  0  0  0
    5.7158   -7.4250    0.0000 C   0  0  0  0  0  0  0  0  0  0  0  0
    5.0013   -7.8375    0.0000 C   0  0  0  0  0  0  0  0  0  0  0  0
    4.2868   -7.4250    0.0000 C   0  0  0  0  0  0  0  0  0  0  0  0
    5.0013   -8.6625    0.0000 N   0  0  0  0  0  0  0  0  0  0  0  0
    5.6687   -9.1474    0.0000 C   0  0  0  0  0  0  0  0  0  0  0  0
    5.4138   -9.9320    0.0000 C   0  0  0  0  0  0  0  0  0  0  0  0
    4.5888   -9.9320    0.0000 N   0  0  0  0  0  0  0  0  0  0  0  0
    4.3339   -9.1474    0.0000 C   0  0  0  0  0  0  0  0  0  0  0  0
    5.8987  -10.5995    0.0000 C   0  0  0  0  0  0  0  0  0  0  0  0
    6.4302   -6.1875    0.0000 C   0  0  0  0  0  0  0  0  0  0  0  0
    7.1447   -5.7750    0.0000 F   0  0  0  0  0  0  0  0  0  0  0  0
    6.8427   -6.9020    0.0000 F   0  0  0  0  0  0  0  0  0  0  0  0
    6.0177   -5.4730    0.0000 F   0  0  0  0  0  0  0  0  0  0  0  0
    2.1434   -2.8875    0.0000 N   0  0  0  0  0  0  0  0  0  0  0  0
    1.4289   -2.4750    0.0000 C   0  0  0  0  0  0  0  0  0  0  0  0
    0.7145   -2.8875    0.0000 N   0  0  0  0  0  0  0  0  0  0  0  0
   -0.0000   -2.4750    0.0000 C   0  0  0  0  0  0  0  0  0  0  0  0
   -0.0000   -1.6500    0.0000 C   0  0  0  0  0  0  0  0  0  0  0  0
    0.7145   -1.2375    0.0000 C   0  0  0  0  0  0  0  0  0  0  0  0
    1.4289   -1.6500    0.0000 N   0  0  0  0  0  0  0  0  0  0  0  0
    0.7145   -0.4125    0.0000 C   0  0  0  0  0  0  0  0  0  0  0  0
   -0.0000   -0.0000    0.0000 N   0  0  0  0  0  0  0  0  0  0  0  0
   -0.0000    0.8250    0.0000 C   0  0  0  0  0  0  0  0  0  0  0  0
    0.7145    1.2375    0.0000 C   0  0  0  0  0  0  0  0  0  0  0  0
    1.4289    0.8250    0.0000 N   0  0  0  0  0  0  0  0  0  0  0  0
    1.4289   -0.0000    0.0000 C   0  0  0  0  0  0  0  0  0  0  0  0
  1  2  1  0  0  0  0
  2  3  2  0  0  0  0
  3  4  1  0  0  0  0
  4  5  2  0  0  0  0
  5  6  1  0  0  0  0
  6  7  2  0  0  0  0
  2  7  1  0  0  0  0
  5  8  1  0  0  0  0
  8  9  2  0  0  0  0
  8 10  1  0  0  0  0
 10 11  1  0  0  0  0
 11 12  2  0  0  0  0
 12 13  1  0  0  0  0
 13 14  2  0  0  0  0
 14 15  1  0  0  0  0
 15 16  2  0  0  0  0
 11 16  1  0  0  0  0
 15 17  1  0  0  0  0
 17 18  1  0  0  0  0
 18 19  2  0  0  0  0
 19 20  1  0  0  0  0
 20 21  2  0  0  0  0
 17 21  1  0  0  0  0
 19 22  1  0  0  0  0
 13 23  1  0  0  0  0
 23 24  1  0  0  0  0
 23 25  1  0  0  0  0
 23 26  1  0  0  0  0
  3 27  1  0  0  0  0
 27 28  1  0  0  0  0
 28 29  2  0  0  0  0
 29 30  1  0  0  0  0
 30 31  2  0  0  0  0
 31 32  1  0  0  0  0
 32 33  2  0  0  0  0
 28 33  1  0  0  0  0
 32 34  1  0  0  0  0
 34 35  2  0  0  0  0
 35 36  1  0  0  0  0
 36 37  2  0  0  0  0
 37 38  1  0  0  0  0
 38 39  2  0  0  0  0
 34 39  1  0  0  0  0
M  END
>  <Name>
Radotinib

>  <CAS>
926037-48-1

>  <Formula>
C27H21F3N8O

>  <MolWt>
530.50 

>  <Bioactivity>
Radotinib, and sometimes referred to by its investigational name IY5511, is a drug for the treatment of different types of cancer, most notably Philadelphia chromosome-positive (Ph+) chronic myeloid leukemia (CML)[1] with resistance or intolerance of other tyrosine kinase Bcr-Abl inhibitors

>  <Pathways>
Tyrosine Kinase/Adaptors

>  <Target>
Bcr-Abl inhibitor

>  <Receptor>
Bcr-Abl 

>  <Reference>
1. Heo SK, et al. PLoS One. 2015 Jun 12;10(6):e0129853.

$$$$
T1777
  Mrv1561503291623562D          

 40 44  0  0  0  0            999 V2000
    1.6391   -9.7517    0.0000 C   0  0  0  0  0  0  0  0  0  0  0  0
    1.0870   -9.1386    0.0000 N   0  0  0  0  0  0  0  0  0  0  0  0
    0.2801   -9.3101    0.0000 C   0  0  0  0  0  0  0  0  0  0  0  0
   -0.2720   -8.6970    0.0000 C   0  0  0  0  0  0  0  0  0  0  0  0
   -0.0170   -7.9124    0.0000 N   0  0  0  0  0  0  0  0  0  0  0  0
    0.7899   -7.7409    0.0000 C   0  0  0  0  0  0  0  0  0  0  0  0
    1.3420   -8.3540    0.0000 C   0  0  0  0  0  0  0  0  0  0  0  0
   -0.5691   -7.2993    0.0000 C   0  0  0  0  0  0  0  0  0  0  0  0
   -0.3141   -6.5147    0.0000 C   0  0  0  0  0  0  0  0  0  0  0  0
    0.4928   -6.3432    0.0000 O   0  0  0  0  0  0  0  0  0  0  0  0
   -0.8662   -5.9016    0.0000 N   0  0  0  0  0  0  0  0  0  0  0  0
   -1.6731   -6.0731    0.0000 C   0  0  0  0  0  0  0  0  0  0  0  0
   -0.6112   -5.1170    0.0000 C   0  0  0  0  0  0  0  0  0  0  0  0
   -1.1633   -4.5039    0.0000 C   0  0  0  0  0  0  0  0  0  0  0  0
   -0.9083   -3.7192    0.0000 C   0  0  0  0  0  0  0  0  0  0  0  0
   -0.1014   -3.5477    0.0000 C   0  0  0  0  0  0  0  0  0  0  0  0
    0.4507   -4.1608    0.0000 C   0  0  0  0  0  0  0  0  0  0  0  0
    0.1957   -4.9454    0.0000 C   0  0  0  0  0  0  0  0  0  0  0  0
    0.1536   -2.7631    0.0000 N   0  0  0  0  0  0  0  0  0  0  0  0
   -0.3984   -2.1500    0.0000 C   0  0  0  0  0  0  0  0  0  0  0  0
   -0.1435   -1.3654    0.0000 C   0  0  0  0  0  0  0  0  0  0  0  0
    0.6411   -1.1104    0.0000 C   0  0  0  0  0  0  0  0  0  0  0  0
    0.6411   -0.2854    0.0000 C   0  0  0  0  0  0  0  0  0  0  0  0
    1.3556    0.1271    0.0000 C   0  0  0  0  0  0  0  0  0  0  0  0
    2.0701   -0.2854    0.0000 C   0  0  0  0  0  0  0  0  0  0  0  0
    2.0701   -1.1104    0.0000 C   0  0  0  0  0  0  0  0  0  0  0  0
    1.3556   -1.5229    0.0000 C   0  0  0  0  0  0  0  0  0  0  0  0
    2.7845    0.1271    0.0000 C   0  0  0  0  0  0  0  0  0  0  0  0
    3.4990   -0.2854    0.0000 O   0  0  0  0  0  0  0  0  0  0  0  0
    2.7845    0.9521    0.0000 O   0  0  0  0  0  0  0  0  0  0  0  0
    2.0701    1.3646    0.0000 C   0  0  0  0  0  0  0  0  0  0  0  0
   -0.1435   -0.0305    0.0000 N   0  0  0  0  0  0  0  0  0  0  0  0
   -0.6284   -0.6979    0.0000 C   0  0  0  0  0  0  0  0  0  0  0  0
   -1.4534   -0.6979    0.0000 O   0  0  0  0  0  0  0  0  0  0  0  0
   -1.2054   -2.3215    0.0000 C   0  0  0  0  0  0  0  0  0  0  0  0
   -1.4604   -3.1062    0.0000 C   0  0  0  0  0  0  0  0  0  0  0  0
   -2.2673   -3.2777    0.0000 C   0  0  0  0  0  0  0  0  0  0  0  0
   -2.8194   -2.6646    0.0000 C   0  0  0  0  0  0  0  0  0  0  0  0
   -2.5644   -1.8800    0.0000 C   0  0  0  0  0  0  0  0  0  0  0  0
   -1.7575   -1.7084    0.0000 C   0  0  0  0  0  0  0  0  0  0  0  0
  1  2  1  0  0  0  0
  2  3  1  0  0  0  0
  3  4  1  0  0  0  0
  4  5  1  0  0  0  0
  5  6  1  0  0  0  0
  6  7  1  0  0  0  0
  2  7  1  0  0  0  0
  5  8  1  0  0  0  0
  8  9  1  0  0  0  0
  9 10  2  0  0  0  0
  9 11  1  0  0  0  0
 11 12  1  0  0  0  0
 11 13  1  0  0  0  0
 13 14  2  0  0  0  0
 14 15  1  0  0  0  0
 15 16  2  0  0  0  0
 16 17  1  0  0  0  0
 17 18  2  0  0  0  0
 13 18  1  0  0  0  0
 16 19  1  0  0  0  0
 20 19  1  4  0  0  0
 20 21  2  0  0  0  0
 21 22  1  0  0  0  0
 22 23  2  0  0  0  0
 23 24  1  0  0  0  0
 24 25  2  0  0  0  0
 25 26  1  0  0  0  0
 26 27  2  0  0  0  0
 22 27  1  0  0  0  0
 25 28  1  0  0  0  0
 28 29  2  0  0  0  0
 28 30  1  0  0  0  0
 30 31  1  0  0  0  0
 23 32  1  0  0  0  0
 32 33  1  0  0  0  0
 21 33  1  0  0  0  0
 33 34  2  0  0  0  0
 20 35  1  0  0  0  0
 35 36  2  0  0  0  0
 36 37  1  0  0  0  0
 37 38  2  0  0  0  0
 38 39  1  0  0  0  0
 39 40  2  0  0  0  0
 35 40  1  0  0  0  0
M  END
>  <Name>
Nintedanib (BIBF 1120)

>  <CAS>
656247-17-5

>  <Formula>
C31H33N5O4

>  <MolWt>
539.62 

>  <Bioactivity>
Nintedanib (BIBF 1120) is a potent triple angiokinase inhibitor for VEGFR1/2/3, FGFR1/2/3 and PDGFR?/? with IC50 of 34 nM/13 nM/13 nM, 69 nM/37 nM/108 nM and 59 nM/65 nM in cell-free assays. Phase 3.

>  <Pathways>
Tyrosine Kinase/Adaptors

>  <Target>
VEGFR inhibitor

>  <Receptor>
VEGFR/FGFR/PDGFR

>  <Reference>
1. Hilberg F, et al. Cancer Res, 2008, 68(12), 4774-4782.

$$$$
170729-80-3
  Mrv1561503291623562D          

 37 40  0  0  1  0            999 V2000
    2.7512    0.7634    0.0000 C   0  0  1  0  0  0  0  0  0  0  0  0
    2.7512   -0.0616    0.0000 N   0  0  0  0  0  0  0  0  0  0  0  0
    3.4656   -0.4741    0.0000 C   0  0  0  0  0  0  0  0  0  0  0  0
    3.4656   -1.2991    0.0000 C   0  0  0  0  0  0  0  0  0  0  0  0
    4.1331   -1.7840    0.0000 N   0  0  0  0  0  0  0  0  0  0  0  0
    3.8781   -2.5687    0.0000 C   0  0  0  0  0  0  0  0  0  0  0  0
    4.3631   -3.2361    0.0000 O   0  0  0  0  0  0  0  0  0  0  0  0
    3.0531   -2.5687    0.0000 N   0  0  0  0  0  0  0  0  0  0  0  0
    2.7982   -1.7840    0.0000 N   0  0  0  0  0  0  0  0  0  0  0  0
    2.0367   -0.4741    0.0000 C   0  0  0  0  0  0  0  0  0  0  0  0
    1.3222   -0.0616    0.0000 C   0  0  0  0  0  0  0  0  0  0  0  0
    1.3222    0.7634    0.0000 O   0  0  0  0  0  0  0  0  0  0  0  0
    2.0367    1.1759    0.0000 C   0  0  1  0  0  0  0  0  0  0  0  0
    2.0367    2.0009    0.0000 O   0  0  0  0  0  0  0  0  0  0  0  0
    1.3222    2.4134    0.0000 C   0  0  1  0  0  0  0  0  0  0  0  0
    1.3222    3.2384    0.0000 C   0  0  0  0  0  0  0  0  0  0  0  0
    0.6078    3.6509    0.0000 C   0  0  0  0  0  0  0  0  0  0  0  0
    0.6078    4.4759    0.0000 C   0  0  0  0  0  0  0  0  0  0  0  0
    1.3222    4.8884    0.0000 C   0  0  0  0  0  0  0  0  0  0  0  0
    2.0367    4.4759    0.0000 C   0  0  0  0  0  0  0  0  0  0  0  0
    2.0367    3.6509    0.0000 C   0  0  0  0  0  0  0  0  0  0  0  0
    2.7512    4.8884    0.0000 C   0  0  0  0  0  0  0  0  0  0  0  0
    3.4656    5.3009    0.0000 F   0  0  0  0  0  0  0  0  0  0  0  0
    3.1637    4.1739    0.0000 F   0  0  0  0  0  0  0  0  0  0  0  0
    2.3387    5.6029    0.0000 F   0  0  0  0  0  0  0  0  0  0  0  0
   -0.1067    4.8884    0.0000 C   0  0  0  0  0  0  0  0  0  0  0  0
   -0.8212    5.3009    0.0000 F   0  0  0  0  0  0  0  0  0  0  0  0
    0.3058    5.6029    0.0000 F   0  0  0  0  0  0  0  0  0  0  0  0
   -0.5192    4.1739    0.0000 F   0  0  0  0  0  0  0  0  0  0  0  0
    0.6078    2.0009    0.0000 C   0  0  0  0  0  0  0  0  0  0  0  0
    3.4656    1.1759    0.0000 C   0  0  0  0  0  0  0  0  0  0  0  0
    3.4656    2.0009    0.0000 C   0  0  0  0  0  0  0  0  0  0  0  0
    4.1801    2.4134    0.0000 C   0  0  0  0  0  0  0  0  0  0  0  0
    4.8946    2.0009    0.0000 C   0  0  0  0  0  0  0  0  0  0  0  0
    5.6091    2.4134    0.0000 F   0  0  0  0  0  0  0  0  0  0  0  0
    4.8946    1.1759    0.0000 C   0  0  0  0  0  0  0  0  0  0  0  0
    4.1801    0.7634    0.0000 C   0  0  0  0  0  0  0  0  0  0  0  0
  1  2  1  0  0  0  0
  2  3  1  0  0  0  0
  3  4  1  0  0  0  0
  4  5  2  0  0  0  0
  5  6  1  0  0  0  0
  6  7  2  0  0  0  0
  6  8  1  0  0  0  0
  8  9  1  0  0  0  0
  4  9  1  0  0  0  0
  2 10  1  0  0  0  0
 10 11  1  0  0  0  0
 11 12  1  0  0  0  0
 12 13  1  0  0  0  0
  1 13  1  0  0  0  0
 13 14  1  1  0  0  0
 14 15  1  0  0  0  0
 15 16  1  0  0  0  0
 16 17  2  0  0  0  0
 17 18  1  0  0  0  0
 18 19  2  0  0  0  0
 19 20  1  0  0  0  0
 20 21  2  0  0  0  0
 16 21  1  0  0  0  0
 20 22  1  0  0  0  0
 22 23  1  0  0  0  0
 22 24  1  0  0  0  0
 22 25  1  0  0  0  0
 18 26  1  0  0  0  0
 26 27  1  0  0  0  0
 26 28  1  0  0  0  0
 26 29  1  0  0  0  0
 15 30  1  6  0  0  0
  1 31  1  1  0  0  0
 31 32  2  0  0  0  0
 32 33  1  0  0  0  0
 33 34  2  0  0  0  0
 34 35  1  0  0  0  0
 34 36  1  0  0  0  0
 36 37  2  0  0  0  0
 31 37  1  0  0  0  0
M  END
>  <Name>
Aprepitant 

>  <CAS>
170729-80-3

>  <Formula>
C23H21F7N4O3

>  <MolWt>
534.43 

>  <Bioactivity>
Aprepitant is a potent and selective neurokinin-1 receptor antagonist.

>  <Pathways>
Neuroscience

>  <Target>
Substance P antagonist

>  <Receptor>
Neurokinin-1 receptor 

>  <Reference>
1. Tattersall FD, et al. Neuropharmacology, 2000, 39(4), 652-663.

$$$$
T2333
  Mrv1561503291623562D          

 25 27  0  0  0  0            999 V2000
    2.6538    2.4327    0.0000 C   0  0  0  0  0  0  0  0  0  0  0  0
    3.0663    1.7182    0.0000 C   0  0  0  0  0  0  0  0  0  0  0  0
    2.6538    1.0038    0.0000 C   0  0  0  0  0  0  0  0  0  0  0  0
    3.3682    0.5913    0.0000 C   0  0  0  0  0  0  0  0  0  0  0  0
    3.3682   -0.2337    0.0000 N   0  0  0  0  0  0  0  0  0  0  0  0
    2.7008   -0.7187    0.0000 C   0  0  0  0  0  0  0  0  0  0  0  0
    2.9557   -1.5033    0.0000 N   0  0  0  0  0  0  0  0  0  0  0  0
    3.7807   -1.5033    0.0000 C   0  0  0  0  0  0  0  0  0  0  0  0
    4.0357   -0.7187    0.0000 N   0  0  0  0  0  0  0  0  0  0  0  0
    1.9393    1.4163    0.0000 C   0  0  0  0  0  0  0  0  0  0  0  0
    1.2248    1.0038    0.0000 C   0  0  0  0  0  0  0  0  0  0  0  0
    0.5103    1.4163    0.0000 C   0  0  0  0  0  0  0  0  0  0  0  0
    0.5103    2.2413    0.0000 C   0  0  0  0  0  0  0  0  0  0  0  0
    1.2248    2.6538    0.0000 C   0  0  0  0  0  0  0  0  0  0  0  0
    1.9393    2.2413    0.0000 C   0  0  0  0  0  0  0  0  0  0  0  0
   -0.2041    2.6538    0.0000 F   0  0  0  0  0  0  0  0  0  0  0  0
    1.2248    0.1788    0.0000 F   0  0  0  0  0  0  0  0  0  0  0  0
    2.2413    0.2893    0.0000 O   0  0  0  0  0  0  0  0  0  0  0  0
    3.8913    1.7182    0.0000 N   0  0  0  0  0  0  0  0  0  0  0  0
    4.3038    2.4327    0.0000 C   0  0  0  0  0  0  0  0  0  0  0  0
    5.1288    2.4327    0.0000 C   0  0  0  0  0  0  0  0  0  0  0  0
    5.5413    1.7182    0.0000 C   0  0  0  0  0  0  0  0  0  0  0  0
    6.3663    1.7182    0.0000 C   0  0  0  0  0  0  0  0  0  0  0  0
    5.1288    1.0038    0.0000 C   0  0  0  0  0  0  0  0  0  0  0  0
    4.3038    1.0038    0.0000 C   0  0  0  0  0  0  0  0  0  0  0  0
  1  2  1  0  0  0  0
  2  3  1  0  0  0  0
  3  4  1  0  0  0  0
  4  5  1  0  0  0  0
  5  6  1  0  0  0  0
  6  7  2  0  0  0  0
  7  8  1  0  0  0  0
  8  9  2  0  0  0  0
  5  9  1  0  0  0  0
  3 10  1  0  0  0  0
 10 11  2  0  0  0  0
 11 12  1  0  0  0  0
 12 13  2  0  0  0  0
 13 14  1  0  0  0  0
 14 15  2  0  0  0  0
 10 15  1  0  0  0  0
 13 16  1  0  0  0  0
 11 17  1  0  0  0  0
  3 18  1  0  0  0  0
  2 19  1  0  0  0  0
 19 20  1  0  0  0  0
 20 21  1  0  0  0  0
 21 22  1  0  0  0  0
 22 23  2  0  0  0  0
 22 24  1  0  0  0  0
 24 25  1  0  0  0  0
 19 25  1  0  0  0  0
M  END
>  <Name>
Efinaconazole

>  <CAS>
164650-44-6

>  <Formula>
C18H22F2N4O

>  <MolWt>
348.34 

>  <Bioactivity>
Efinaconazole(KP-103) is a novel triazole antifungal drug currently under development as a topical treatment for onychomycosis.

>  <Pathways>
Microbiology & Virology 

>  <Target>
Antifungal

>  <Receptor>
antifungal

>  <Reference>
1. Tatsumi Y, et al.  Antimicrob Agents Chemother. 2013 May;57(5):2405-9.

$$$$
110078-46-1
  Mrv1561503291623562D          

 36 38  0  0  0  0            999 V2000
   -3.5724    0.4125    0.0000 C   0  0  0  0  0  0  0  0  0  0  0  0
   -4.2868    0.8250    0.0000 C   0  0  0  0  0  0  0  0  0  0  0  0
   -4.2868    1.6500    0.0000 N   0  0  0  0  0  0  0  0  0  0  0  0
   -3.5724    2.0625    0.0000 C   0  0  0  0  0  0  0  0  0  0  0  0
   -2.8579    1.6500    0.0000 C   0  0  0  0  0  0  0  0  0  0  0  0
   -2.1434    2.0625    0.0000 N   0  0  0  0  0  0  0  0  0  0  0  0
   -1.4289    1.6500    0.0000 C   0  0  0  0  0  0  0  0  0  0  0  0
   -1.4289    0.8250    0.0000 C   0  0  0  0  0  0  0  0  0  0  0  0
   -0.7145    0.4125    0.0000 C   0  0  0  0  0  0  0  0  0  0  0  0
   -0.7145   -0.4125    0.0000 N   0  0  0  0  0  0  0  0  0  0  0  0
   -1.4289   -0.8250    0.0000 C   0  0  0  0  0  0  0  0  0  0  0  0
   -2.1434   -0.4125    0.0000 C   0  0  0  0  0  0  0  0  0  0  0  0
   -2.8579   -0.8250    0.0000 N   0  0  0  0  0  0  0  0  0  0  0  0
   -3.5724   -0.4125    0.0000 C   0  0  0  0  0  0  0  0  0  0  0  0
   -0.0000   -0.8250    0.0000 C   0  0  0  0  0  0  0  0  0  0  0  0
   -0.0000   -1.6500    0.0000 C   0  0  0  0  0  0  0  0  0  0  0  0
    0.7145   -2.0625    0.0000 C   0  0  0  0  0  0  0  0  0  0  0  0
    0.7145   -2.8875    0.0000 C   0  0  0  0  0  0  0  0  0  0  0  0
   -0.0000   -3.3000    0.0000 C   0  0  0  0  0  0  0  0  0  0  0  0
   -0.7145   -2.8875    0.0000 C   0  0  0  0  0  0  0  0  0  0  0  0
   -0.7145   -2.0625    0.0000 C   0  0  0  0  0  0  0  0  0  0  0  0
   -0.0000   -4.1250    0.0000 C   0  0  0  0  0  0  0  0  0  0  0  0
   -0.7145   -4.5375    0.0000 N   0  0  0  0  0  0  0  0  0  0  0  0
   -0.0000   -4.9500    0.0000 C   0  0  0  0  0  0  0  0  0  0  0  0
   -0.0000   -5.7750    0.0000 C   0  0  0  0  0  0  0  0  0  0  0  0
   -0.7145   -6.1875    0.0000 C   0  0  0  0  0  0  0  0  0  0  0  0
   -1.4289   -5.7750    0.0000 N   0  0  0  0  0  0  0  0  0  0  0  0
   -2.1434   -6.1875    0.0000 C   0  0  0  0  0  0  0  0  0  0  0  0
   -2.8579   -5.7750    0.0000 C   0  0  0  0  0  0  0  0  0  0  0  0
   -2.8579   -4.9500    0.0000 N   0  0  0  0  0  0  0  0  0  0  0  0
   -3.5724   -4.5375    0.0000 C   0  0  0  0  0  0  0  0  0  0  0  0
   -3.5724   -3.7125    0.0000 C   0  0  0  0  0  0  0  0  0  0  0  0
   -2.8579   -3.3000    0.0000 C   0  0  0  0  0  0  0  0  0  0  0  0
   -2.1434   -3.7125    0.0000 N   0  0  0  0  0  0  0  0  0  0  0  0
   -1.4289   -3.3000    0.0000 C   0  0  0  0  0  0  0  0  0  0  0  0
   -0.7145   -3.7125    0.0000 C   0  0  0  0  0  0  0  0  0  0  0  0
  1  2  1  0  0  0  0
  2  3  1  0  0  0  0
  3  4  1  0  0  0  0
  4  5  1  0  0  0  0
  5  6  1  0  0  0  0
  6  7  1  0  0  0  0
  7  8  1  0  0  0  0
  8  9  1  0  0  0  0
  9 10  1  0  0  0  0
 10 11  1  0  0  0  0
 11 12  1  0  0  0  0
 12 13  1  0  0  0  0
 13 14  1  0  0  0  0
  1 14  1  0  0  0  0
 10 15  1  0  0  0  0
 15 16  1  0  0  0  0
 16 17  2  0  0  0  0
 17 18  1  0  0  0  0
 18 19  2  0  0  0  0
 19 20  1  0  0  0  0
 20 21  2  0  0  0  0
 16 21  1  0  0  0  0
 19 22  1  0  0  0  0
 22 23  1  0  0  0  0
 23 24  1  0  0  0  0
 24 25  1  0  0  0  0
 25 26  1  0  0  0  0
 26 27  1  0  0  0  0
 27 28  1  0  0  0  0
 28 29  1  0  0  0  0
 29 30  1  0  0  0  0
 30 31  1  0  0  0  0
 31 32  1  0  0  0  0
 32 33  1  0  0  0  0
 33 34  1  0  0  0  0
 34 35  1  0  0  0  0
 35 36  1  0  0  0  0
 23 36  1  0  0  0  0
M  END
>  <Name>
Plerixafor

>  <CAS>
110078-46-1

>  <Formula>
C28H54N8

>  <MolWt>
502.78 

>  <Bioactivity>
Plerixafor is a bicyclam with hematopoietic stem cell-mobilizing activity. Plerixafor blocks the binding of stromal cell-derived factor (SDF-1alpha) to the cellular receptor CXCR4, resulting in hematopoietic stem cell (HSC) release from bone marrow and HSC movement into the peripheral circulation.

>  <Pathways>
GPCR/G Protein

>  <Target>
CXCR antagonist

>  <Receptor>
CXCR 

>  <Reference>
1. Nishimura Y, et al. J Invest Dermatol. 2012, 132(3 Pt 1), 711-720.

$$$$
T2330
  Mrv1561503291623562D          

 28 30  0  0  0  0            999 V2000
    1.4289   -4.1250    0.0000 C   0  0  0  0  0  0  0  0  0  0  0  0
    1.4289   -4.9500    0.0000 C   0  0  0  0  0  0  0  0  0  0  0  0
    0.7145   -5.3625    0.0000 C   0  0  0  0  0  0  0  0  0  0  0  0
   -0.0000   -4.9500    0.0000 C   0  0  0  0  0  0  0  0  0  0  0  0
   -0.0000   -4.1250    0.0000 C   0  0  0  0  0  0  0  0  0  0  0  0
    0.7145   -3.7125    0.0000 C   0  0  0  0  0  0  0  0  0  0  0  0
    0.7145   -2.8875    0.0000 C   0  0  0  0  0  0  0  0  0  0  0  0
   -0.7145   -3.7125    0.0000 N   0  0  0  0  0  0  0  0  0  0  0  0
   -0.7145   -2.8875    0.0000 C   0  0  0  0  0  0  0  0  0  0  0  0
   -1.4289   -2.4750    0.0000 C   0  0  0  0  0  0  0  0  0  0  0  0
   -1.4289   -1.6500    0.0000 C   0  0  0  0  0  0  0  0  0  0  0  0
   -0.7145   -1.2375    0.0000 N   0  0  0  0  0  0  0  0  0  0  0  0
    0.0000   -1.6500    0.0000 C   0  0  0  0  0  0  0  0  0  0  0  0
   -0.0000   -2.4750    0.0000 N   0  0  0  0  0  0  0  0  0  0  0  0
    0.7145   -1.2375    0.0000 N   0  0  0  0  0  0  0  0  0  0  0  0
    0.7145   -0.4125    0.0000 C   0  0  0  0  0  0  0  0  0  0  0  0
    0.0000    0.0000    0.0000 C   0  0  0  0  0  0  0  0  0  0  0  0
    0.0000    0.8250    0.0000 C   0  0  0  0  0  0  0  0  0  0  0  0
    0.7145    1.2375    0.0000 C   0  0  0  0  0  0  0  0  0  0  0  0
    1.4289    0.8250    0.0000 C   0  0  0  0  0  0  0  0  0  0  0  0
    1.4289   -0.0000    0.0000 C   0  0  0  0  0  0  0  0  0  0  0  0
    0.7145    2.0625    0.0000 C   0  0  0  0  0  0  0  0  0  0  0  0
    0.7145    2.8875    0.0000 N   0  0  0  0  0  0  0  0  0  0  0  0
   -0.7145   -5.3625    0.0000 C   0  0  0  0  0  0  0  0  0  0  0  0
    2.1434   -5.3625    0.0000 C   0  0  0  0  0  0  0  0  0  0  0  0
    2.1434   -6.1875    0.0000 C   0  0  0  0  0  0  0  0  0  0  0  0
    2.8579   -6.6000    0.0000 C   0  0  0  0  0  0  0  0  0  0  0  0
    3.5724   -7.0125    0.0000 N   0  0  0  0  0  0  0  0  0  0  0  0
  1  2  2  0  0  0  0
  2  3  1  0  0  0  0
  3  4  2  0  0  0  0
  4  5  1  0  0  0  0
  5  6  2  0  0  0  0
  1  6  1  0  0  0  0
  6  7  1  0  0  0  0
  5  8  1  0  0  0  0
  8  9  1  0  0  0  0
  9 10  2  0  0  0  0
 10 11  1  0  0  0  0
 11 12  2  0  0  0  0
 12 13  1  0  0  0  0
 13 14  2  0  0  0  0
  9 14  1  0  0  0  0
 13 15  1  0  0  0  0
 15 16  1  0  0  0  0
 16 17  2  0  0  0  0
 17 18  1  0  0  0  0
 18 19  2  0  0  0  0
 19 20  1  0  0  0  0
 20 21  2  0  0  0  0
 16 21  1  0  0  0  0
 19 22  1  0  0  0  0
 22 23  3  0  0  0  0
  4 24  1  0  0  0  0
  2 25  1  0  0  0  0
 25 26  2  0  0  0  0
 26 27  1  0  0  0  0
 27 28  3  0  0  0  0
M  END
>  <Name>
Rilpivirine

>  <CAS>
500287-72-9

>  <Formula>
C22H18N6

>  <MolWt>
366.42 

>  <Bioactivity>
Rilpivirine is a non-nucleoside reverse transcriptase inhibitor (NNRTI), and used to treat HIV-1 infection.

>  <Pathways>
DNA Damage/DNA Repair;Microbiology & Virology

>  <Target>
Reverse Transcriptase inhibitor

>  <Receptor>
Reverse Transcriptase

>  <Reference>
1. Janssen PA, et al. J Med Chem. 2005, 48(6), 1901-1909.

$$$$
T1792
  Mrv1561503291623562D          

 33 35  0  0  0  0            999 V2000
   -2.8579   -1.6500    0.0000 C   0  0  0  0  0  0  0  0  0  0  0  0
   -2.8579   -2.4750    0.0000 N   0  0  0  0  0  0  0  0  0  0  0  0
   -3.5724   -2.8875    0.0000 C   0  0  0  0  0  0  0  0  0  0  0  0
   -4.2868   -2.4750    0.0000 O   0  0  0  0  0  0  0  0  0  0  0  0
   -3.5724   -3.7125    0.0000 C   0  0  0  0  0  0  0  0  0  0  0  0
   -2.8579   -4.1250    0.0000 N   0  0  0  0  0  0  0  0  0  0  0  0
   -2.8579   -4.9500    0.0000 C   0  0  0  0  0  0  0  0  0  0  0  0
   -3.5724   -5.3625    0.0000 C   0  0  0  0  0  0  0  0  0  0  0  0
   -4.2868   -4.9500    0.0000 C   0  0  0  0  0  0  0  0  0  0  0  0
   -4.2868   -4.1250    0.0000 C   0  0  0  0  0  0  0  0  0  0  0  0
   -5.0013   -5.3625    0.0000 O   0  0  0  0  0  0  0  0  0  0  0  0
   -5.7158   -4.9500    0.0000 C   0  0  0  0  0  0  0  0  0  0  0  0
   -6.4302   -5.3625    0.0000 C   0  0  0  0  0  0  0  0  0  0  0  0
   -7.1447   -4.9500    0.0000 C   0  0  0  0  0  0  0  0  0  0  0  0
   -7.1447   -4.1250    0.0000 C   0  0  0  0  0  0  0  0  0  0  0  0
   -6.4302   -3.7125    0.0000 C   0  0  0  0  0  0  0  0  0  0  0  0
   -5.7158   -4.1250    0.0000 C   0  0  0  0  0  0  0  0  0  0  0  0
   -7.8592   -3.7125    0.0000 N   0  0  0  0  0  0  0  0  0  0  0  0
   -7.8592   -2.8875    0.0000 C   0  0  0  0  0  0  0  0  0  0  0  0
   -7.1447   -2.4750    0.0000 O   0  0  0  0  0  0  0  0  0  0  0  0
   -8.5737   -2.4750    0.0000 N   0  0  0  0  0  0  0  0  0  0  0  0
   -9.2881   -2.8875    0.0000 C   0  0  0  0  0  0  0  0  0  0  0  0
   -9.2881   -3.7125    0.0000 C   0  0  0  0  0  0  0  0  0  0  0  0
  -10.0026   -4.1250    0.0000 C   0  0  0  0  0  0  0  0  0  0  0  0
  -10.7171   -3.7125    0.0000 C   0  0  0  0  0  0  0  0  0  0  0  0
  -10.7171   -2.8875    0.0000 C   0  0  0  0  0  0  0  0  0  0  0  0
  -10.0026   -2.4750    0.0000 C   0  0  0  0  0  0  0  0  0  0  0  0
  -11.4315   -4.1250    0.0000 Cl  0  0  0  0  0  0  0  0  0  0  0  0
  -10.0026   -4.9500    0.0000 C   0  0  0  0  0  0  0  0  0  0  0  0
  -10.0026   -5.7750    0.0000 F   0  0  0  0  0  0  0  0  0  0  0  0
  -10.8276   -4.9500    0.0000 F   0  0  0  0  0  0  0  0  0  0  0  0
   -9.1776   -4.9500    0.0000 F   0  0  0  0  0  0  0  0  0  0  0  0
   -7.8592   -5.3625    0.0000 F   0  0  0  0  0  0  0  0  0  0  0  0
  1  2  1  0  0  0  0
  2  3  1  0  0  0  0
  3  4  2  0  0  0  0
  3  5  1  0  0  0  0
  5  6  2  0  0  0  0
  6  7  1  0  0  0  0
  7  8  2  0  0  0  0
  8  9  1  0  0  0  0
  9 10  2  0  0  0  0
  5 10  1  0  0  0  0
  9 11  1  0  0  0  0
 11 12  1  0  0  0  0
 12 13  2  0  0  0  0
 13 14  1  0  0  0  0
 14 15  2  0  0  0  0
 15 16  1  0  0  0  0
 16 17  2  0  0  0  0
 12 17  1  0  0  0  0
 15 18  1  0  0  0  0
 18 19  1  0  0  0  0
 19 20  2  0  0  0  0
 19 21  1  0  0  0  0
 21 22  1  0  0  0  0
 22 23  2  0  0  0  0
 23 24  1  0  0  0  0
 24 25  2  0  0  0  0
 25 26  1  0  0  0  0
 26 27  2  0  0  0  0
 22 27  1  0  0  0  0
 25 28  1  0  0  0  0
 24 29  1  0  0  0  0
 29 30  1  0  0  0  0
 29 31  1  0  0  0  0
 29 32  1  0  0  0  0
 14 33  1  0  0  0  0
M  END
>  <Name>
Regorafenib (BAY 73-4506)

>  <CAS>
755037-03-7

>  <Formula>
C21H15ClF4N4O3

>  <MolWt>
482.82 

>  <Bioactivity>
Regorafenib (BAY 73-4506) is a multi-target inhibitor for VEGFR1, VEGFR2, VEGFR3, PDGFR?, Kit, RET and Raf-1 with IC50 of 13 nM/4.2 nM/46 nM, 22 nM, 7 nM, 1.5 nM and 2.5 nM in cell-free assays, respectively.

>  <Pathways>
Tyrosine Kinase/Adaptors; MAPK Signaling

>  <Target>
VEGFR inhibitor; PDGFR inhibitor; FGFR inhibitor; Raf inhibitor

>  <Receptor>
VEGFR1/2/3;PDGFR?;FGFR; Raf-1/B-Raf

>  <Reference>
1. Wilhelm SM, et al. Int J Cancer, 2011, 129(1), 245-255.

$$$$
T1785
  Mrv1561503291623562D          

 33 37  0  0  0  0            999 V2000
    1.4289   -2.4750    0.0000 C   0  0  0  0  0  0  0  0  0  0  0  0
    1.4289   -1.6500    0.0000 C   0  0  0  0  0  0  0  0  0  0  0  0
    0.7145   -1.2375    0.0000 C   0  0  0  0  0  0  0  0  0  0  0  0
    0.7145   -0.4125    0.0000 C   0  0  0  0  0  0  0  0  0  0  0  0
   -0.0000   -0.0000    0.0000 O   0  0  0  0  0  0  0  0  0  0  0  0
    1.4289   -0.0000    0.0000 N   0  0  0  0  0  0  0  0  0  0  0  0
    2.1434   -0.4125    0.0000 C   0  0  0  0  0  0  0  0  0  0  0  0
    2.8579   -0.0000    0.0000 N   0  0  0  0  0  0  0  0  0  0  0  0
    3.5724   -0.4125    0.0000 C   0  0  0  0  0  0  0  0  0  0  0  0
    3.5724   -1.2375    0.0000 N   0  0  0  0  0  0  0  0  0  0  0  0
    2.8579   -1.6500    0.0000 C   0  0  0  0  0  0  0  0  0  0  0  0
    2.1434   -1.2375    0.0000 C   0  0  0  0  0  0  0  0  0  0  0  0
    4.2868    0.0000    0.0000 N   0  0  0  0  0  0  0  0  0  0  0  0
    5.0013   -0.4125    0.0000 C   0  0  0  0  0  0  0  0  0  0  0  0
    5.7158   -0.0000    0.0000 N   0  0  0  0  0  0  0  0  0  0  0  0
    6.4302   -0.4125    0.0000 C   0  0  0  0  0  0  0  0  0  0  0  0
    6.4302   -1.2375    0.0000 C   0  0  0  0  0  0  0  0  0  0  0  0
    5.7158   -1.6500    0.0000 C   0  0  0  0  0  0  0  0  0  0  0  0
    5.0013   -1.2375    0.0000 C   0  0  0  0  0  0  0  0  0  0  0  0
    7.1447   -1.6500    0.0000 N   0  0  0  0  0  0  0  0  0  0  0  0
    7.8592   -1.2375    0.0000 C   0  0  0  0  0  0  0  0  0  0  0  0
    8.5737   -1.6500    0.0000 C   0  0  0  0  0  0  0  0  0  0  0  0
    8.5737   -2.4750    0.0000 N   0  0  0  0  0  0  0  0  0  0  0  0
    7.8592   -2.8875    0.0000 C   0  0  0  0  0  0  0  0  0  0  0  0
    7.1447   -2.4750    0.0000 C   0  0  0  0  0  0  0  0  0  0  0  0
    1.4289    0.8250    0.0000 C   0  0  0  0  0  0  0  0  0  0  0  0
    0.7615    1.3099    0.0000 C   0  0  0  0  0  0  0  0  0  0  0  0
    1.0164    2.0945    0.0000 C   0  0  0  0  0  0  0  0  0  0  0  0
    1.8414    2.0945    0.0000 C   0  0  0  0  0  0  0  0  0  0  0  0
    2.0964    1.3099    0.0000 C   0  0  0  0  0  0  0  0  0  0  0  0
   -0.0000   -1.6500    0.0000 C   0  0  0  0  0  0  0  0  0  0  0  0
   -0.0000   -2.4750    0.0000 O   0  0  0  0  0  0  0  0  0  0  0  0
   -0.7145   -1.2375    0.0000 C   0  0  0  0  0  0  0  0  0  0  0  0
  1  2  1  0  0  0  0
  2  3  2  0  0  0  0
  3  4  1  0  0  0  0
  4  5  2  0  0  0  0
  4  6  1  0  0  0  0
  6  7  1  0  0  0  0
  7  8  2  0  0  0  0
  8  9  1  0  0  0  0
  9 10  2  0  0  0  0
 10 11  1  0  0  0  0
 11 12  2  0  0  0  0
  2 12  1  0  0  0  0
  7 12  1  0  0  0  0
  9 13  1  0  0  0  0
 13 14  1  0  0  0  0
 14 15  2  0  0  0  0
 15 16  1  0  0  0  0
 16 17  2  0  0  0  0
 17 18  1  0  0  0  0
 18 19  2  0  0  0  0
 14 19  1  0  0  0  0
 17 20  1  0  0  0  0
 20 21  1  0  0  0  0
 21 22  1  0  0  0  0
 22 23  1  0  0  0  0
 23 24  1  0  0  0  0
 24 25  1  0  0  0  0
 20 25  1  0  0  0  0
  6 26  1  0  0  0  0
 26 27  1  0  0  0  0
 27 28  1  0  0  0  0
 28 29  1  0  0  0  0
 29 30  1  0  0  0  0
 26 30  1  0  0  0  0
  3 31  1  0  0  0  0
 31 32  2  0  0  0  0
 31 33  1  0  0  0  0
M  END
>  <Name>
Palbociclib

>  <CAS>
571190-30-2

>  <Formula>
C24H29N7O2.C2H6O4S

>  <MolWt>
573.66 

>  <Bioactivity>
Palbociclib (PD-0332991) is an orally available pyridopyrimidine-derived cyclin-dependent kinase (CDK) inhibitor with potential antineoplastic activity.

>  <Pathways>
Cell Cycle/Checkpoint

>  <Target>
CDK inhibitor

>  <Receptor>
CDKs;EGFR;PDGFR;VEGFR;AMPK

>  <Reference>
1. Fry DW, et al. Mol Cancer Ther, 2004, 3(11), 1427-1438.


$$$$
198470-84-7
  Mrv1561503291623562D          

 26 28  0  0  0  0            999 V2000
    1.4289   -0.0000    0.0000 C   0  0  0  0  0  0  0  0  0  0  0  0
    0.7145   -0.4125    0.0000 C   0  0  0  0  0  0  0  0  0  0  0  0
    0.7145   -1.2375    0.0000 C   0  0  0  0  0  0  0  0  0  0  0  0
    1.3819   -1.7224    0.0000 C   0  0  0  0  0  0  0  0  0  0  0  0
    1.1270   -2.5070    0.0000 O   0  0  0  0  0  0  0  0  0  0  0  0
    0.3020   -2.5070    0.0000 N   0  0  0  0  0  0  0  0  0  0  0  0
    0.0470   -1.7224    0.0000 C   0  0  0  0  0  0  0  0  0  0  0  0
   -0.7376   -1.4675    0.0000 C   0  0  0  0  0  0  0  0  0  0  0  0
   -1.3507   -2.0195    0.0000 C   0  0  0  0  0  0  0  0  0  0  0  0
   -2.1353   -1.7646    0.0000 C   0  0  0  0  0  0  0  0  0  0  0  0
   -2.3068   -0.9576    0.0000 C   0  0  0  0  0  0  0  0  0  0  0  0
   -1.6937   -0.4056    0.0000 C   0  0  0  0  0  0  0  0  0  0  0  0
   -0.9091   -0.6605    0.0000 C   0  0  0  0  0  0  0  0  0  0  0  0
    2.1665   -1.4675    0.0000 C   0  0  0  0  0  0  0  0  0  0  0  0
   -0.0000    0.0000    0.0000 C   0  0  0  0  0  0  0  0  0  0  0  0
   -0.0000    0.8250    0.0000 C   0  0  0  0  0  0  0  0  0  0  0  0
    0.7145    1.2375    0.0000 C   0  0  0  0  0  0  0  0  0  0  0  0
    1.4289    0.8250    0.0000 C   0  0  0  0  0  0  0  0  0  0  0  0
    0.7145    2.0625    0.0000 S   0  0  0  0  0  0  0  0  0  0  0  0
    0.7145    2.8875    0.0000 N   0  0  0  0  0  0  0  0  0  0  0  0
    0.0000    3.3000    0.0000 C   0  0  0  0  0  0  0  0  0  0  0  0
    0.0000    4.1250    0.0000 C   0  0  0  0  0  0  0  0  0  0  0  0
   -0.7145    4.5375    0.0000 C   0  0  0  0  0  0  0  0  0  0  0  0
   -0.7145    2.8875    0.0000 O   0  0  0  0  0  0  0  0  0  0  0  0
    1.5395    2.0625    0.0000 O   0  0  0  0  0  0  0  0  0  0  0  0
   -0.1105    2.0625    0.0000 O   0  0  0  0  0  0  0  0  0  0  0  0
  1  2  2  0  0  0  0
  2  3  1  0  0  0  0
  3  4  2  0  0  0  0
  4  5  1  0  0  0  0
  5  6  1  0  0  0  0
  6  7  2  0  0  0  0
  3  7  1  0  0  0  0
  7  8  1  0  0  0  0
  8  9  2  0  0  0  0
  9 10  1  0  0  0  0
 10 11  2  0  0  0  0
 11 12  1  0  0  0  0
 12 13  2  0  0  0  0
  8 13  1  0  0  0  0
  4 14  1  0  0  0  0
  2 15  1  0  0  0  0
 15 16  2  0  0  0  0
 16 17  1  0  0  0  0
 17 18  2  0  0  0  0
  1 18  1  0  0  0  0
 17 19  1  0  0  0  0
 19 20  1  0  0  0  0
 20 21  1  0  0  0  0
 21 22  1  0  0  0  0
 22 23  1  0  0  0  0
 21 24  2  0  0  0  0
 19 25  2  0  0  0  0
 19 26  2  0  0  0  0
M  END
>  <Name>
Parecoxib 

>  <CAS>
198470-84-7

>  <Formula>
C19H18N2O4S

>  <MolWt>
370.42 

>  <Bioactivity>
Parecoxib is a potent and selective COX-2 inhibitor.

>  <Pathways>
Neuroscience

>  <Target>
COX inhibitor

>  <Receptor>
COX-2

>  <Reference>
1. Ye Z, et al. Neurochem Res. 2012 Feb;37(2):321-9.

$$$$
58-38-8
  Mrv1561503291623562D          

 25 28  0  0  0  0            999 V2000
    3.5724    1.2375    0.0000 C   0  0  0  0  0  0  0  0  0  0  0  0
    4.2868    0.8250    0.0000 C   0  0  0  0  0  0  0  0  0  0  0  0
    5.0013    1.2375    0.0000 Cl  0  0  0  0  0  0  0  0  0  0  0  0
    4.2868   -0.0000    0.0000 C   0  0  0  0  0  0  0  0  0  0  0  0
    3.5724   -0.4125    0.0000 C   0  0  0  0  0  0  0  0  0  0  0  0
    2.8579   -0.0000    0.0000 C   0  0  0  0  0  0  0  0  0  0  0  0
    2.8579    0.8250    0.0000 C   0  0  0  0  0  0  0  0  0  0  0  0
    2.1434    1.2375    0.0000 N   0  0  0  0  0  0  0  0  0  0  0  0
    1.4289    0.8250    0.0000 C   0  0  0  0  0  0  0  0  0  0  0  0
    1.4289   -0.0000    0.0000 C   0  0  0  0  0  0  0  0  0  0  0  0
    2.1434   -0.4125    0.0000 S   0  0  0  0  0  0  0  0  0  0  0  0
    0.7145   -0.4125    0.0000 C   0  0  0  0  0  0  0  0  0  0  0  0
   -0.0000    0.0000    0.0000 C   0  0  0  0  0  0  0  0  0  0  0  0
    0.0000    0.8250    0.0000 C   0  0  0  0  0  0  0  0  0  0  0  0
    0.7145    1.2375    0.0000 C   0  0  0  0  0  0  0  0  0  0  0  0
    2.1434    2.0625    0.0000 C   0  0  0  0  0  0  0  0  0  0  0  0
    2.8579    2.4750    0.0000 C   0  0  0  0  0  0  0  0  0  0  0  0
    2.8579    3.3000    0.0000 C   0  0  0  0  0  0  0  0  0  0  0  0
    3.5724    3.7125    0.0000 N   0  0  0  0  0  0  0  0  0  0  0  0
    3.5724    4.5375    0.0000 C   0  0  0  0  0  0  0  0  0  0  0  0
    4.2868    4.9500    0.0000 C   0  0  0  0  0  0  0  0  0  0  0  0
    5.0013    4.5375    0.0000 N   0  0  0  0  0  0  0  0  0  0  0  0
    5.0013    3.7125    0.0000 C   0  0  0  0  0  0  0  0  0  0  0  0
    4.2868    3.3000    0.0000 C   0  0  0  0  0  0  0  0  0  0  0  0
    5.7158    4.9500    0.0000 C   0  0  0  0  0  0  0  0  0  0  0  0
  1  2  2  0  0  0  0
  2  3  1  0  0  0  0
  2  4  1  0  0  0  0
  4  5  2  0  0  0  0
  5  6  1  0  0  0  0
  6  7  2  0  0  0  0
  1  7  1  0  0  0  0
  7  8  1  0  0  0  0
  8  9  1  0  0  0  0
  9 10  2  0  0  0  0
 10 11  1  0  0  0  0
  6 11  1  0  0  0  0
 10 12  1  0  0  0  0
 12 13  2  0  0  0  0
 13 14  1  0  0  0  0
 14 15  2  0  0  0  0
  9 15  1  0  0  0  0
  8 16  1  0  0  0  0
 16 17  1  0  0  0  0
 17 18  1  0  0  0  0
 18 19  1  0  0  0  0
 19 20  1  0  0  0  0
 20 21  1  0  0  0  0
 21 22  1  0  0  0  0
 22 23  1  0  0  0  0
 23 24  1  0  0  0  0
 19 24  1  0  0  0  0
 22 25  1  0  0  0  0
M  END
>  <Name>
Prochlorperazine

>  <CAS>
58-38-8

>  <Formula>
C20H24ClN3S

>  <MolWt>
373.94 

>  <Bioactivity>
An antipsychotic phenothiazine derivative with actions and uses similar to those of CHLORPROMAZINE.


>  <Pathways>
Membrane Transporter/Ion Channel; Neuroscience

>  <Target>
Calmodulin inhibitor;Dopamine Receptor antagonist

>  <Receptor>
Calmodulin;Dopamine receptor

>  <Reference>
1. Hoyberg OJ, et al. Acta Psychiatr Scand. 1993 Dec;88(6):395-402.

$$$$
T1894
  Mrv1561503291623562D          

 31 35  0  0  0  0            999 V2000
    0.7145   -3.7125    0.0000 C   0  0  0  0  0  0  0  0  0  0  0  0
    0.7145   -2.8875    0.0000 C   0  0  0  0  0  0  0  0  0  0  0  0
   -0.0000   -2.4750    0.0000 C   0  0  0  0  0  0  0  0  0  0  0  0
   -0.0000   -1.6500    0.0000 C   0  0  0  0  0  0  0  0  0  0  0  0
    0.7145   -1.2375    0.0000 N   0  0  0  0  0  0  0  0  0  0  0  0
    0.7145   -0.4125    0.0000 C   0  0  0  0  0  0  0  0  0  0  0  0
   -0.0000    0.0000    0.0000 C   0  0  0  0  0  0  0  0  0  0  0  0
   -0.0000    0.8250    0.0000 C   0  0  0  0  0  0  0  0  0  0  0  0
    0.7145    1.2375    0.0000 C   0  0  0  0  0  0  0  0  0  0  0  0
    1.4289    0.8250    0.0000 C   0  0  0  0  0  0  0  0  0  0  0  0
    1.4289    0.0000    0.0000 C   0  0  0  0  0  0  0  0  0  0  0  0
   -0.7145    1.2375    0.0000 F   0  0  0  0  0  0  0  0  0  0  0  0
   -0.7145   -0.4125    0.0000 C   0  0  0  0  0  0  0  0  0  0  0  0
   -1.4289    0.0000    0.0000 O   0  0  0  0  0  0  0  0  0  0  0  0
   -0.7145   -1.2375    0.0000 N   0  0  0  0  0  0  0  0  0  0  0  0
   -1.4289   -1.6500    0.0000 C   0  0  0  0  0  0  0  0  0  0  0  0
   -1.4289   -2.4750    0.0000 C   0  0  0  0  0  0  0  0  0  0  0  0
   -2.1434   -2.8875    0.0000 C   0  0  0  0  0  0  0  0  0  0  0  0
   -2.8579   -2.4750    0.0000 C   0  0  0  0  0  0  0  0  0  0  0  0
   -2.8579   -1.6500    0.0000 C   0  0  0  0  0  0  0  0  0  0  0  0
   -2.1434   -1.2375    0.0000 C   0  0  0  0  0  0  0  0  0  0  0  0
   -0.7145   -2.8875    0.0000 N   0  0  0  0  0  0  0  0  0  0  0  0
   -0.7145   -3.7125    0.0000 C   0  0  0  0  0  0  0  0  0  0  0  0
   -0.0000   -4.1250    0.0000 N   0  0  0  0  0  0  0  0  0  0  0  0
   -0.0000   -4.9500    0.0000 C   0  0  0  0  0  0  0  0  0  0  0  0
   -0.7145   -5.3625    0.0000 N   0  0  0  0  0  0  0  0  0  0  0  0
   -1.4289   -4.9500    0.0000 C   0  0  0  0  0  0  0  0  0  0  0  0
   -1.4289   -4.1250    0.0000 C   0  0  0  0  0  0  0  0  0  0  0  0
   -2.2136   -3.8701    0.0000 N   0  0  0  0  0  0  0  0  0  0  0  0
   -2.6985   -4.5375    0.0000 C   0  0  0  0  0  0  0  0  0  0  0  0
   -2.2136   -5.2049    0.0000 N   0  0  0  0  0  0  0  0  0  0  0  0
  1  2  1  0  0  0  0
  2  3  1  0  0  0  0
  3  4  1  0  0  0  0
  4  5  2  0  0  0  0
  5  6  1  0  0  0  0
  6  7  2  0  0  0  0
  7  8  1  0  0  0  0
  8  9  2  0  0  0  0
  9 10  1  0  0  0  0
 10 11  2  0  0  0  0
  6 11  1  0  0  0  0
  8 12  1  0  0  0  0
  7 13  1  0  0  0  0
 13 14  2  0  0  0  0
 13 15  1  0  0  0  0
  4 15  1  0  0  0  0
 15 16  1  0  0  0  0
 16 17  2  0  0  0  0
 17 18  1  0  0  0  0
 18 19  2  0  0  0  0
 19 20  1  0  0  0  0
 20 21  2  0  0  0  0
 16 21  1  0  0  0  0
  3 22  1  0  0  0  0
 22 23  1  0  0  0  0
 23 24  2  0  0  0  0
 24 25  1  0  0  0  0
 25 26  2  0  0  0  0
 26 27  1  0  0  0  0
 27 28  2  0  0  0  0
 23 28  1  0  0  0  0
 28 29  1  0  0  0  0
 29 30  1  0  0  0  0
 30 31  2  0  0  0  0
 27 31  1  0  0  0  0
M  END
>  <Name>
CAL-101 (Idelalisib, GS-1101)

>  <CAS>
870281-82-6

>  <Formula>
C22H18FN7O

>  <MolWt>
415.42 

>  <Bioactivity>
CAL-101 (Idelalisib, GS-1101) is a selective p110? inhibitor with IC50 of 2.5 nM; shown to have 40- to 300-fold greater selectivity for p110? than p110?/?/?, and 400- to 4000-fold more selectivity to p110? than C2?, hVPS34, DNA-PK and mTOR.

>  <Pathways>
PI3K/Akt/mTOR Signaling

>  <Target>
PI3K inhibitor; mTOR inhibitor

>  <Receptor>
PI3K?/?/?/?, mTOR

>  <Reference>
1. Lannutti BJ, et al. Blood, 2011, 117(2), 591-594.

$$$$
T1835
  Mrv1561503291623562D          

 33 37  0  0  0  0            999 V2000
    0.7478   -5.5585    0.0000 C   0  0  0  0  0  0  0  0  0  0  0  0
    0.1957   -4.9454    0.0000 C   0  0  0  0  0  0  0  0  0  0  0  0
    0.4507   -4.1608    0.0000 C   0  0  0  0  0  0  0  0  0  0  0  0
    1.2577   -3.9893    0.0000 O   0  0  0  0  0  0  0  0  0  0  0  0
   -0.1014   -3.5477    0.0000 N   0  0  0  0  0  0  0  0  0  0  0  0
   -0.9083   -3.7192    0.0000 C   0  0  0  0  0  0  0  0  0  0  0  0
   -1.4604   -3.1062    0.0000 C   0  0  0  0  0  0  0  0  0  0  0  0
   -1.2054   -2.3215    0.0000 C   0  0  0  0  0  0  0  0  0  0  0  0
   -0.3984   -2.1500    0.0000 C   0  0  0  0  0  0  0  0  0  0  0  0
    0.1536   -2.7631    0.0000 C   0  0  0  0  0  0  0  0  0  0  0  0
   -0.1435   -1.3654    0.0000 N   0  0  0  0  0  0  0  0  0  0  0  0
    0.6411   -1.1104    0.0000 C   0  0  0  0  0  0  0  0  0  0  0  0
    0.6411   -0.2854    0.0000 C   0  0  0  0  0  0  0  0  0  0  0  0
   -0.1435   -0.0305    0.0000 C   0  0  0  0  0  0  0  0  0  0  0  0
   -0.6284   -0.6979    0.0000 N   0  0  0  0  0  0  0  0  0  0  0  0
   -0.3984    0.7541    0.0000 C   0  0  0  0  0  0  0  0  0  0  0  0
   -1.2054    0.9256    0.0000 C   0  0  0  0  0  0  0  0  0  0  0  0
   -1.4604    1.7103    0.0000 C   0  0  0  0  0  0  0  0  0  0  0  0
   -0.9083    2.3234    0.0000 C   0  0  0  0  0  0  0  0  0  0  0  0
   -0.1014    2.1518    0.0000 C   0  0  0  0  0  0  0  0  0  0  0  0
    0.1536    1.3672    0.0000 C   0  0  0  0  0  0  0  0  0  0  0  0
   -1.1633    3.1080    0.0000 O   0  0  0  0  0  0  0  0  0  0  0  0
   -0.6112    3.7211    0.0000 C   0  0  0  0  0  0  0  0  0  0  0  0
   -0.8662    4.5057    0.0000 C   0  0  0  0  0  0  0  0  0  0  0  0
   -0.3141    5.1188    0.0000 C   0  0  0  0  0  0  0  0  0  0  0  0
    0.4928    4.9473    0.0000 C   0  0  0  0  0  0  0  0  0  0  0  0
    0.7478    4.1626    0.0000 C   0  0  0  0  0  0  0  0  0  0  0  0
    0.1957    3.5496    0.0000 C   0  0  0  0  0  0  0  0  0  0  0  0
    1.3556    0.1271    0.0000 C   0  0  0  0  0  0  0  0  0  0  0  0
    2.0701   -0.2854    0.0000 N   0  0  0  0  0  0  0  0  0  0  0  0
    2.0701   -1.1104    0.0000 C   0  0  0  0  0  0  0  0  0  0  0  0
    1.3556   -1.5229    0.0000 N   0  0  0  0  0  0  0  0  0  0  0  0
    1.3556    0.9521    0.0000 N   0  0  0  0  0  0  0  0  0  0  0  0
  1  2  2  0  0  0  0
  2  3  1  0  0  0  0
  3  4  2  0  0  0  0
  3  5  1  0  0  0  0
  5  6  1  0  0  0  0
  6  7  1  0  0  0  0
  7  8  1  0  0  0  0
  8  9  1  0  0  0  0
  9 10  1  0  0  0  0
  5 10  1  0  0  0  0
  9 11  1  0  0  0  0
 11 12  1  0  0  0  0
 12 13  2  0  0  0  0
 13 14  1  0  0  0  0
 14 15  2  0  0  0  0
 11 15  1  0  0  0  0
 14 16  1  0  0  0  0
 16 17  2  0  0  0  0
 17 18  1  0  0  0  0
 18 19  2  0  0  0  0
 19 20  1  0  0  0  0
 20 21  2  0  0  0  0
 16 21  1  0  0  0  0
 19 22  1  0  0  0  0
 22 23  1  0  0  0  0
 23 24  2  0  0  0  0
 24 25  1  0  0  0  0
 25 26  2  0  0  0  0
 26 27  1  0  0  0  0
 27 28  2  0  0  0  0
 23 28  1  0  0  0  0
 13 29  1  0  0  0  0
 29 30  2  0  0  0  0
 30 31  1  0  0  0  0
 31 32  2  0  0  0  0
 12 32  1  0  0  0  0
 29 33  1  0  0  0  0
M  END
>  <Name>
Ibrutinib (PCI-32765)

>  <CAS>
936563-96-1

>  <Formula>
C25H24N6O2

>  <MolWt>
440.50 

>  <Bioactivity>
Ibrutinib is an orally bioavailable, small-molecule inhibitor of Bruton's tyrosine kinase (BTK) with potential antineoplastic activity. Upon oral administration, ibrutinib binds to and irreversibly inhibits BTK activity, thereby preventing both B-cell activation and B-cell-mediated signaling. This leads to an inhibition of the growth of malignant B cells that overexpress BTK. BTK, a member of the src-related BTK/Tec family of cytoplasmic tyrosine kinases, is required for B cell receptor signaling, plays a key role in B-cell maturation, and is overexpressed in a number of B-cell malignancies. The expression of BTK in tumor cells is also associated with increased proliferation and survival.

>  <Pathways>
Angiogenesis

>  <Target>
BTK inhibitor

>  <Receptor>
BTK

>  <Reference>
1. Burger JA1, Buggy JJ. Leuk Lymphoma. 2013 Nov;54(11):2385-91.

$$$$
173352-21-1
  Mrv1561503291623562D          

 21 23  0  0  0  0            999 V2000
    4.2135    0.6979    0.0000 C   0  0  0  0  0  0  0  0  0  0  0  0
    3.4990    1.1104    0.0000 C   0  0  0  0  0  0  0  0  0  0  0  0
    2.7845    0.6979    0.0000 O   0  0  0  0  0  0  0  0  0  0  0  0
    2.0701    1.1104    0.0000 C   0  0  0  0  0  0  0  0  0  0  0  0
    1.3556    0.6979    0.0000 C   0  0  0  0  0  0  0  0  0  0  0  0
    0.6411    1.1104    0.0000 C   0  0  0  0  0  0  0  0  0  0  0  0
    0.6411    1.9354    0.0000 C   0  0  0  0  0  0  0  0  0  0  0  0
    1.3556    2.3479    0.0000 C   0  0  0  0  0  0  0  0  0  0  0  0
    2.0701    1.9354    0.0000 C   0  0  0  0  0  0  0  0  0  0  0  0
   -0.1435    2.1904    0.0000 N   0  0  0  0  0  0  0  0  0  0  0  0
   -0.6284    1.5229    0.0000 C   0  0  0  0  0  0  0  0  0  0  0  0
   -0.1435    0.8555    0.0000 N   0  0  0  0  0  0  0  0  0  0  0  0
   -1.4534    1.5229    0.0000 S   0  0  0  0  0  0  0  0  0  0  0  0
   -1.8659    2.2374    0.0000 C   0  0  0  0  0  0  0  0  0  0  0  0
   -2.6909    2.2374    0.0000 C   0  0  0  0  0  0  0  0  0  0  0  0
   -3.1034    2.9519    0.0000 N   0  0  0  0  0  0  0  0  0  0  0  0
   -3.9284    2.9519    0.0000 C   0  0  0  0  0  0  0  0  0  0  0  0
   -4.3409    3.6664    0.0000 C   0  0  0  0  0  0  0  0  0  0  0  0
   -3.9284    4.3808    0.0000 O   0  0  0  0  0  0  0  0  0  0  0  0
   -3.1034    4.3808    0.0000 C   0  0  0  0  0  0  0  0  0  0  0  0
   -2.6909    3.6664    0.0000 C   0  0  0  0  0  0  0  0  0  0  0  0
  1  2  1  0  0  0  0
  2  3  1  0  0  0  0
  3  4  1  0  0  0  0
  4  5  2  0  0  0  0
  5  6  1  0  0  0  0
  6  7  2  0  0  0  0
  7  8  1  0  0  0  0
  8  9  2  0  0  0  0
  4  9  1  0  0  0  0
  7 10  1  0  0  0  0
 10 11  2  0  0  0  0
 11 12  1  0  0  0  0
  6 12  1  0  0  0  0
 11 13  1  0  0  0  0
 13 14  1  0  0  0  0
 14 15  1  0  0  0  0
 15 16  1  0  0  0  0
 16 17  1  0  0  0  0
 17 18  1  0  0  0  0
 18 19  1  0  0  0  0
 19 20  1  0  0  0  0
 20 21  1  0  0  0  0
 16 21  1  0  0  0  0
M  END
>  <Name>
CM 346(Obenoxazine)

>  <CAS>
173352-21-1

>  <Formula>
C15H21N3O2S

>  <MolWt>
307.41 

>  <Bioactivity>
Afobazole (CM346) is an anxiolytic drug; produces anxiolytic and neuroprotective effects without any sedative or muscle relaxant actions.

>  <Pathways>
Others

>  <Target>
Others

>  <Receptor>
Others

>  <Reference>
1. Behensky AA, et al. J Pharmacol Exp Ther. 2013 Nov;347(2):458-67.

$$$$
387867-13-2
  Mrv1561503291623562D          

 41 45  0  0  0  0            999 V2000
   -0.0000    0.0000    0.0000 C   0  0  0  0  0  0  0  0  0  0  0  0
   -0.7145   -0.4125    0.0000 C   0  0  0  0  0  0  0  0  0  0  0  0
   -1.4289    0.0000    0.0000 O   0  0  0  0  0  0  0  0  0  0  0  0
   -2.1434   -0.4125    0.0000 C   0  0  0  0  0  0  0  0  0  0  0  0
   -0.7145   -1.2375    0.0000 C   0  0  0  0  0  0  0  0  0  0  0  0
   -0.0000   -1.6500    0.0000 C   0  0  0  0  0  0  0  0  0  0  0  0
    0.7145   -1.2375    0.0000 C   0  0  0  0  0  0  0  0  0  0  0  0
    0.7145   -0.4125    0.0000 C   0  0  0  0  0  0  0  0  0  0  0  0
    1.4289    0.0000    0.0000 C   0  0  0  0  0  0  0  0  0  0  0  0
    2.1434   -0.4125    0.0000 N   0  0  0  0  0  0  0  0  0  0  0  0
    2.1434   -1.2375    0.0000 C   0  0  0  0  0  0  0  0  0  0  0  0
    1.4289   -1.6500    0.0000 N   0  0  0  0  0  0  0  0  0  0  0  0
    1.4289    0.8250    0.0000 N   0  0  0  0  0  0  0  0  0  0  0  0
    0.7145    1.2375    0.0000 C   0  0  0  0  0  0  0  0  0  0  0  0
    0.7145    2.0625    0.0000 C   0  0  0  0  0  0  0  0  0  0  0  0
    1.4289    2.4750    0.0000 N   0  0  0  0  0  0  0  0  0  0  0  0
    1.4289    3.3000    0.0000 C   0  0  0  0  0  0  0  0  0  0  0  0
    2.1434    3.7125    0.0000 N   0  0  0  0  0  0  0  0  0  0  0  0
    2.1434    4.5375    0.0000 C   0  0  0  0  0  0  0  0  0  0  0  0
    1.4289    4.9500    0.0000 C   0  0  0  0  0  0  0  0  0  0  0  0
    1.4289    5.7750    0.0000 C   0  0  0  0  0  0  0  0  0  0  0  0
    2.1434    6.1875    0.0000 C   0  0  0  0  0  0  0  0  0  0  0  0
    2.1434    7.0125    0.0000 O   0  0  0  0  0  0  0  0  0  0  0  0
    2.8579    7.4250    0.0000 C   0  0  0  0  0  0  0  0  0  0  0  0
    2.8579    8.2500    0.0000 C   0  0  0  0  0  0  0  0  0  0  0  0
    3.5724    7.0125    0.0000 C   0  0  0  0  0  0  0  0  0  0  0  0
    2.8579    5.7750    0.0000 C   0  0  0  0  0  0  0  0  0  0  0  0
    2.8579    4.9500    0.0000 C   0  0  0  0  0  0  0  0  0  0  0  0
    0.7145    3.7125    0.0000 O   0  0  0  0  0  0  0  0  0  0  0  0
    2.1434    2.0625    0.0000 C   0  0  0  0  0  0  0  0  0  0  0  0
    2.1434    1.2375    0.0000 C   0  0  0  0  0  0  0  0  0  0  0  0
   -1.4289   -1.6500    0.0000 O   0  0  0  0  0  0  0  0  0  0  0  0
   -1.4289   -2.4750    0.0000 C   0  0  0  0  0  0  0  0  0  0  0  0
   -2.1434   -2.8875    0.0000 C   0  0  0  0  0  0  0  0  0  0  0  0
   -2.1434   -3.7125    0.0000 C   0  0  0  0  0  0  0  0  0  0  0  0
   -2.8579   -4.1250    0.0000 N   0  0  0  0  0  0  0  0  0  0  0  0
   -2.8579   -4.9500    0.0000 C   0  0  0  0  0  0  0  0  0  0  0  0
   -3.5724   -5.3625    0.0000 C   0  0  0  0  0  0  0  0  0  0  0  0
   -4.2868   -4.9500    0.0000 C   0  0  0  0  0  0  0  0  0  0  0  0
   -4.2868   -4.1250    0.0000 C   0  0  0  0  0  0  0  0  0  0  0  0
   -3.5724   -3.7125    0.0000 C   0  0  0  0  0  0  0  0  0  0  0  0
  1  2  2  0  0  0  0
  2  3  1  0  0  0  0
  3  4  1  0  0  0  0
  2  5  1  0  0  0  0
  5  6  2  0  0  0  0
  6  7  1  0  0  0  0
  7  8  2  0  0  0  0
  1  8  1  0  0  0  0
  8  9  1  0  0  0  0
  9 10  2  0  0  0  0
 10 11  1  0  0  0  0
 11 12  2  0  0  0  0
  7 12  1  0  0  0  0
  9 13  1  0  0  0  0
 13 14  1  0  0  0  0
 14 15  1  0  0  0  0
 15 16  1  0  0  0  0
 16 17  1  0  0  0  0
 17 18  1  0  0  0  0
 18 19  1  0  0  0  0
 19 20  2  0  0  0  0
 20 21  1  0  0  0  0
 21 22  2  0  0  0  0
 22 23  1  0  0  0  0
 23 24  1  0  0  0  0
 24 25  1  0  0  0  0
 24 26  1  0  0  0  0
 22 27  1  0  0  0  0
 27 28  2  0  0  0  0
 19 28  1  0  0  0  0
 17 29  2  0  0  0  0
 16 30  1  0  0  0  0
 30 31  1  0  0  0  0
 13 31  1  0  0  0  0
  5 32  1  0  0  0  0
 32 33  1  0  0  0  0
 33 34  1  0  0  0  0
 34 35  1  0  0  0  0
 35 36  1  0  0  0  0
 36 37  1  0  0  0  0
 37 38  1  0  0  0  0
 38 39  1  0  0  0  0
 39 40  1  0  0  0  0
 40 41  1  0  0  0  0
 36 41  1  0  0  0  0
M  END
>  <Name>
Tandutinib (MLN518)

>  <CAS>
387867-13-2

>  <Formula>
C31H42N6O4

>  <MolWt>
562.70 

>  <Bioactivity>
MLN518 is a novel, oral, small molecule designed to inhibit type III receptor tyrosine kinases, including FLT3, (platelet-derived growth-factor receptor) PDGFR and c-KIT. Tyrosine kinases are enzymes involved in several cellular processes and are known to be activated in cancer cells to drive tumor growth. AML patients with FLT3 mutations experience earlier disease relapse and shorter survival rates compared to patients without these mutations. Approximately 25 to 30 percent of all adult AML patients have a mutation of the FLT3 gene. The use of MLN518 to treat AML has been granted fast-track status by the U.S. Food and Drug Administration. Phase I/II trials are underway.


>  <Pathways>
Tyrosine Kinase/Adaptors

>  <Target>
KDR inhibitor;PDGFR? inhibitor;CSF-1R inhibitor;c-Kit inhibitor;FLT3 inhibitor

>  <Receptor>
KDR;PDGFR?;CSF-1R;c-Kit;FLT3

>  <Reference>
1. Kelly LM, et al. Cancer Cell, 2002, 1(5), 421-432.

$$$$
27262-47-1
  Mrv1561503291623562D          

 21 22  0  0  1  0            999 V2000
   -0.0000   -2.4750    0.0000 C   0  0  1  0  0  0  0  0  0  0  0  0
   -0.7145   -2.8875    0.0000 N   0  0  0  0  0  0  0  0  0  0  0  0
   -0.7145   -3.7125    0.0000 C   0  0  0  0  0  0  0  0  0  0  0  0
   -0.0000   -4.1250    0.0000 C   0  0  0  0  0  0  0  0  0  0  0  0
    0.7145   -3.7125    0.0000 C   0  0  0  0  0  0  0  0  0  0  0  0
    0.7145   -2.8875    0.0000 C   0  0  0  0  0  0  0  0  0  0  0  0
   -1.4289   -2.4750    0.0000 C   0  0  0  0  0  0  0  0  0  0  0  0
   -2.1434   -2.8875    0.0000 C   0  0  0  0  0  0  0  0  0  0  0  0
   -2.8579   -2.4750    0.0000 C   0  0  0  0  0  0  0  0  0  0  0  0
   -3.5724   -2.8875    0.0000 C   0  0  0  0  0  0  0  0  0  0  0  0
   -0.0000   -1.6500    0.0000 C   0  0  0  0  0  0  0  0  0  0  0  0
    0.7145   -1.2375    0.0000 N   0  0  0  0  0  0  0  0  0  0  0  0
    0.7145   -0.4125    0.0000 C   0  0  0  0  0  0  0  0  0  0  0  0
   -0.0000    0.0000    0.0000 C   0  0  0  0  0  0  0  0  0  0  0  0
   -0.0000    0.8250    0.0000 C   0  0  0  0  0  0  0  0  0  0  0  0
    0.7145    1.2375    0.0000 C   0  0  0  0  0  0  0  0  0  0  0  0
    1.4289    0.8250    0.0000 C   0  0  0  0  0  0  0  0  0  0  0  0
    1.4289    0.0000    0.0000 C   0  0  0  0  0  0  0  0  0  0  0  0
    2.1434   -0.4125    0.0000 C   0  0  0  0  0  0  0  0  0  0  0  0
   -0.7145   -0.4125    0.0000 C   0  0  0  0  0  0  0  0  0  0  0  0
   -0.7145   -1.2375    0.0000 O   0  0  0  0  0  0  0  0  0  0  0  0
  1  2  1  0  0  0  0
  2  3  1  0  0  0  0
  3  4  1  0  0  0  0
  4  5  1  0  0  0  0
  5  6  1  0  0  0  0
  1  6  1  0  0  0  0
  2  7  1  0  0  0  0
  7  8  1  0  0  0  0
  8  9  1  0  0  0  0
  9 10  1  0  0  0  0
  1 11  1  6  0  0  0
 11 12  1  0  0  0  0
 12 13  1  0  0  0  0
 13 14  2  0  0  0  0
 14 15  1  0  0  0  0
 15 16  2  0  0  0  0
 16 17  1  0  0  0  0
 17 18  2  0  0  0  0
 13 18  1  0  0  0  0
 18 19  1  0  0  0  0
 14 20  1  0  0  0  0
 11 21  2  0  0  0  0
M  END
>  <Name>
Levobupivacaine

>  <CAS>
27262-47-1

>  <Formula>
C18H28N2O

>  <MolWt>
288.43 

>  <Bioactivity>
Levobupivacaine is an amino-amide local anaesthetic drug belonging to the family of n-alkylsubstituted pipecoloxylidide. It is the S-enantiomer of bupivacaine. Levobupivacaine hydrochloride is commonly marketed by AstraZeneca under the trade name Chirocaine. Compared to bupivacaine, levobupivacaine is associated with less vasodilation and has a longer duration of action. It is approximately 13 per cent less potent (by molarity) than racemic bupivacaine.Levobupivacaine is indicated for local anaesthesia including infiltration, nerve block, ophthalmic, epidural and intrathecal anaesthesia in adults; and infiltration analgesia in children. Adverse drug reactions (ADRs) are rare when it is administered correctly. Most ADRs relate to administration technique (resulting in systemic exposure) or pharmacological effects of anesthesia, however allergic reactions can rarely occur. 


>  <Pathways>
Membrane Transporter/Ion Channel

>  <Target>
Sodium Channel inhibitor

>  <Receptor>
Sodium channel

>  <Reference>
1. Ueta K, et al. Reg Anesth Pain Med. 2006 Jan-Feb;31(1):19-25.

$$$$
775304-57-9
  Mrv1561503291623562D          

 21 23  0  0  0  0            999 V2000
   -0.0000    0.8250    0.0000 C   0  0  0  0  0  0  0  0  0  0  0  0
    0.7145    1.2375    0.0000 C   0  0  0  0  0  0  0  0  0  0  0  0
    1.4289    0.8250    0.0000 C   0  0  0  0  0  0  0  0  0  0  0  0
    1.4289   -0.0000    0.0000 C   0  0  0  0  0  0  0  0  0  0  0  0
    0.7145   -0.4125    0.0000 C   0  0  0  0  0  0  0  0  0  0  0  0
   -0.0000    0.0000    0.0000 C   0  0  0  0  0  0  0  0  0  0  0  0
    0.7145   -1.2375    0.0000 C   0  0  0  0  0  0  0  0  0  0  0  0
    1.3819   -1.7224    0.0000 N   0  0  0  0  0  0  0  0  0  0  0  0
    1.1270   -2.5070    0.0000 C   0  0  0  0  0  0  0  0  0  0  0  0
    0.3020   -2.5070    0.0000 N   0  0  0  0  0  0  0  0  0  0  0  0
    0.0470   -1.7224    0.0000 O   0  0  0  0  0  0  0  0  0  0  0  0
    1.6119   -3.1745    0.0000 C   0  0  0  0  0  0  0  0  0  0  0  0
    2.4324   -3.0882    0.0000 C   0  0  0  0  0  0  0  0  0  0  0  0
    2.9173   -3.7557    0.0000 C   0  0  0  0  0  0  0  0  0  0  0  0
    2.5817   -4.5094    0.0000 C   0  0  0  0  0  0  0  0  0  0  0  0
    1.7613   -4.5956    0.0000 C   0  0  0  0  0  0  0  0  0  0  0  0
    1.2763   -3.9282    0.0000 C   0  0  0  0  0  0  0  0  0  0  0  0
    3.7378   -3.6695    0.0000 C   0  0  0  0  0  0  0  0  0  0  0  0
    4.0733   -2.9158    0.0000 O   0  0  0  0  0  0  0  0  0  0  0  0
    4.2227   -4.3369    0.0000 O   0  0  0  0  0  0  0  0  0  0  0  0
    2.1434   -0.4125    0.0000 F   0  0  0  0  0  0  0  0  0  0  0  0
  1  2  2  0  0  0  0
  2  3  1  0  0  0  0
  3  4  2  0  0  0  0
  4  5  1  0  0  0  0
  5  6  2  0  0  0  0
  1  6  1  0  0  0  0
  5  7  1  0  0  0  0
  7  8  2  0  0  0  0
  8  9  1  0  0  0  0
  9 10  2  0  0  0  0
 10 11  1  0  0  0  0
  7 11  1  0  0  0  0
  9 12  1  0  0  0  0
 12 13  2  0  0  0  0
 13 14  1  0  0  0  0
 14 15  2  0  0  0  0
 15 16  1  0  0  0  0
 16 17  2  0  0  0  0
 12 17  1  0  0  0  0
 14 18  1  0  0  0  0
 18 19  2  0  0  0  0
 18 20  1  0  0  0  0
  4 21  1  0  0  0  0
M  END
>  <Name>
Ataluren (PTC124)

>  <CAS>
775304-57-9

>  <Formula>
C15H9FN2O3

>  <MolWt>
284.24 

>  <Bioactivity>
PTC124 (Ataluren) selectively induces ribosomal read-through of premature but not normal termination codons, with EC50 of 0.1 ?M, may provide treatment for genetic disorders caused by nonsense mutations (e.g. CF caused by CFTR nonsense mutation).

>  <Pathways>
Membrane Transporter/Ion Channel

>  <Target>
CFTR inhibitor

>  <Receptor>
CFTR

>  <Reference>
1. Welch EM, et al. Nature, 2007, 447(7140), 87-91.

$$$$
56715-13-0
  Mrv1561503291623562D          

 19 19  0  0  1  0            999 V2000
    0.7145   -1.2375    0.0000 C   0  0  1  0  0  0  0  0  0  0  0  0
    0.7145   -0.4125    0.0000 O   0  0  0  0  0  0  0  0  0  0  0  0
   -0.0000   -1.6500    0.0000 C   0  0  0  0  0  0  0  0  0  0  0  0
   -0.7145   -1.2375    0.0000 O   0  0  0  0  0  0  0  0  0  0  0  0
   -1.4289   -1.6500    0.0000 C   0  0  0  0  0  0  0  0  0  0  0  0
   -1.4289   -2.4750    0.0000 C   0  0  0  0  0  0  0  0  0  0  0  0
   -2.1434   -2.8875    0.0000 C   0  0  0  0  0  0  0  0  0  0  0  0
   -2.8579   -2.4750    0.0000 C   0  0  0  0  0  0  0  0  0  0  0  0
   -2.8579   -1.6500    0.0000 C   0  0  0  0  0  0  0  0  0  0  0  0
   -2.1434   -1.2375    0.0000 C   0  0  0  0  0  0  0  0  0  0  0  0
   -3.5724   -2.8875    0.0000 C   0  0  0  0  0  0  0  0  0  0  0  0
   -4.2868   -2.4750    0.0000 C   0  0  0  0  0  0  0  0  0  0  0  0
   -5.0013   -2.8875    0.0000 O   0  0  0  0  0  0  0  0  0  0  0  0
   -4.2868   -1.6500    0.0000 N   0  0  0  0  0  0  0  0  0  0  0  0
    1.4289   -1.6500    0.0000 C   0  0  0  0  0  0  0  0  0  0  0  0
    2.1434   -1.2375    0.0000 N   0  0  0  0  0  0  0  0  0  0  0  0
    2.8579   -1.6500    0.0000 C   0  0  0  0  0  0  0  0  0  0  0  0
    3.5724   -1.2375    0.0000 C   0  0  0  0  0  0  0  0  0  0  0  0
    2.8579   -2.4750    0.0000 C   0  0  0  0  0  0  0  0  0  0  0  0
  1  2  1  6  0  0  0
  1  3  1  0  0  0  0
  3  4  1  0  0  0  0
  4  5  1  0  0  0  0
  5  6  2  0  0  0  0
  6  7  1  0  0  0  0
  7  8  2  0  0  0  0
  8  9  1  0  0  0  0
  9 10  2  0  0  0  0
  5 10  1  0  0  0  0
  8 11  1  0  0  0  0
 11 12  1  0  0  0  0
 12 13  2  0  0  0  0
 12 14  1  0  0  0  0
  1 15  1  0  0  0  0
 15 16  1  0  0  0  0
 16 17  1  0  0  0  0
 17 18  1  0  0  0  0
 17 19  1  0  0  0  0
M  END
>  <Name>
(R)-(+)-Atenolol

>  <CAS>
56715-13-0

>  <Formula>
C14H22N2O3

>  <MolWt>
266.34 

>  <Bioactivity>
A cardioselective beta-1 adrenergic blocker possessing properties and potency similar to PROPRANOLOL, but without a negative inotropic effect. 

>  <Pathways>
GPCR/G Protein

>  <Target>
Adrenergic Receptor agonist 

>  <Receptor>
?-adrenergic receptor

>  <Reference>
1. Nuttall SL, et al. J Clin Pharm Ther. 2003 Jun;28(3):179-86.

$$$$
T0444L
  Mrv1561503291623562D          

 28 29  0  0  0  0            999 V2000
   -1.6596   -0.2706    0.0000 C   0  0  0  0  0  0  0  0  0  0  0  0
   -0.9451    0.1419    0.0000 C   0  0  0  0  0  0  0  0  0  0  0  0
   -0.2306   -0.2706    0.0000 C   0  0  0  0  0  0  0  0  0  0  0  0
   -0.2306   -1.0956    0.0000 C   0  0  0  0  0  0  0  0  0  0  0  0
   -0.9451   -1.5081    0.0000 N   0  0  0  0  0  0  0  0  0  0  0  0
   -1.0313   -2.3286    0.0000 C   0  0  0  0  0  0  0  0  0  0  0  0
   -1.8383   -2.5002    0.0000 C   0  0  0  0  0  0  0  0  0  0  0  0
   -2.2508   -1.7857    0.0000 N   0  0  0  0  0  0  0  0  0  0  0  0
   -1.6988   -1.1726    0.0000 C   0  0  0  0  0  0  0  0  0  0  0  0
    0.4839    0.1419    0.0000 O   0  0  0  0  0  0  0  0  0  0  0  0
    1.1983   -0.2706    0.0000 C   0  0  0  0  0  0  0  0  0  0  0  0
    1.9128    0.1419    0.0000 C   0  0  0  0  0  0  0  0  0  0  0  0
    1.9128    0.9669    0.0000 C   0  0  0  0  0  0  0  0  0  0  0  0
    2.6273    1.3794    0.0000 C   0  0  0  0  0  0  0  0  0  0  0  0
    3.3417    0.9669    0.0000 C   0  0  0  0  0  0  0  0  0  0  0  0
    3.3417    0.1419    0.0000 C   0  0  0  0  0  0  0  0  0  0  0  0
    2.6273   -0.2706    0.0000 C   0  0  0  0  0  0  0  0  0  0  0  0
    4.0562    1.3794    0.0000 Cl  0  0  0  0  0  0  0  0  0  0  0  0
   -0.9451    0.9669    0.0000 C   0  0  0  0  0  0  0  0  0  0  0  0
   -1.6596    1.3794    0.0000 C   0  0  0  0  0  0  0  0  0  0  0  0
   -2.3740    0.9669    0.0000 C   0  0  0  0  0  0  0  0  0  0  0  0
   -2.3740    0.1419    0.0000 C   0  0  0  0  0  0  0  0  0  0  0  0
   -3.0885    1.3794    0.0000 Cl  0  0  0  0  0  0  0  0  0  0  0  0
   -0.2306    1.3794    0.0000 Cl  0  0  0  0  0  0  0  0  0  0  0  0
    7.5330    0.7145    0.0000 O   0  0  0  0  0  0  0  0  0  0  0  0
    7.1205   -0.0000    0.0000 N   0  3  0  0  0  0  0  0  0  0  0  0
    7.5330   -0.7145    0.0000 O   0  0  0  0  0  0  0  0  0  0  0  0
    6.2955   -0.0000    0.0000 O   0  5  0  0  0  0  0  0  0  0  0  0
  1  2  2  0  0  0  0
  2  3  1  0  0  0  0
  3  4  1  0  0  0  0
  4  5  1  0  0  0  0
  5  6  1  0  0  0  0
  6  7  2  0  0  0  0
  7  8  1  0  0  0  0
  8  9  2  0  0  0  0
  5  9  1  0  0  0  0
  3 10  1  0  0  0  0
 10 11  1  0  0  0  0
 11 12  1  0  0  0  0
 12 13  2  0  0  0  0
 13 14  1  0  0  0  0
 14 15  2  0  0  0  0
 15 16  1  0  0  0  0
 16 17  2  0  0  0  0
 12 17  1  0  0  0  0
 15 18  1  0  0  0  0
  2 19  1  0  0  0  0
 19 20  2  0  0  0  0
 20 21  1  0  0  0  0
 21 22  2  0  0  0  0
  1 22  1  0  0  0  0
 21 23  1  0  0  0  0
 19 24  1  0  0  0  0
 25 26  2  0  0  0  0
 26 27  1  0  0  0  0
 26 28  1  0  0  0  0
M  CHG  2  26   1  28  -1
M  END
>  <Name>
Econazole nitrate

>  <CAS>
24169-02-6

>  <Formula>
C18H15Cl3N2O.HNO3

>  <MolWt>
444.70 

>  <Bioactivity>
A broad spectrum antimycotic with some action against Gram positive bacteria. It is used topically in dermatomycoses also orally and parenterally. 

>  <Pathways>
Microbiology & Virology

>  <Target>
Antibiotic

>  <Receptor>
14-? Demethylase

>  <Reference>
1. Ge S, et al.  Int J Pharm. 2014 Apr 25; 465(1-2):120-31.

$$$$
T2239L
  Mrv1561503291623562D          

 32 34  0  0  0  0            999 V2000
   -0.6078   10.9527    0.0000 C   0  0  0  0  0  0  0  0  0  0  0  0
   -1.3222   10.5402    0.0000 C   0  0  0  0  0  0  0  0  0  0  0  0
   -1.3222    9.7152    0.0000 C   0  0  0  0  0  0  0  0  0  0  0  0
   -0.6078    9.3027    0.0000 N   0  0  0  0  0  0  0  0  0  0  0  0
   -0.6078    8.4777    0.0000 C   0  0  0  0  0  0  0  0  0  0  0  0
    0.1067    8.0652    0.0000 O   0  0  0  0  0  0  0  0  0  0  0  0
   -1.3222    8.0652    0.0000 C   0  0  0  0  0  0  0  0  0  0  0  0
   -1.3222    7.2402    0.0000 N   0  0  0  0  0  0  0  0  0  0  0  0
   -2.0367    6.8277    0.0000 C   0  0  0  0  0  0  0  0  0  0  0  0
   -2.7512    7.2402    0.0000 N   0  0  0  0  0  0  0  0  0  0  0  0
   -2.7512    8.0652    0.0000 C   0  0  0  0  0  0  0  0  0  0  0  0
   -3.4656    8.4777    0.0000 O   0  0  0  0  0  0  0  0  0  0  0  0
   -2.0367    8.4777    0.0000 C   0  0  0  0  0  0  0  0  0  0  0  0
   -2.0367    9.3027    0.0000 O   0  0  0  0  0  0  0  0  0  0  0  0
   -3.4656    6.8277    0.0000 C   0  0  0  0  0  0  0  0  0  0  0  0
   -2.0367    6.0027    0.0000 C   0  0  0  0  0  0  0  0  0  0  0  0
   -2.0367    5.1777    0.0000 N   0  0  0  0  0  0  0  0  0  0  0  0
   -2.7512    4.7652    0.0000 C   0  0  0  0  0  0  0  0  0  0  0  0
   -3.4656    5.1777    0.0000 O   0  0  0  0  0  0  0  0  0  0  0  0
   -2.7512    3.9402    0.0000 C   0  0  0  0  0  0  0  0  0  0  0  0
   -2.0837    3.4553    0.0000 N   0  0  0  0  0  0  0  0  0  0  0  0
   -2.3387    2.6706    0.0000 N   0  0  0  0  0  0  0  0  0  0  0  0
   -3.1637    2.6706    0.0000 C   0  0  0  0  0  0  0  0  0  0  0  0
   -3.4186    3.4553    0.0000 O   0  0  0  0  0  0  0  0  0  0  0  0
   -3.6486    2.0032    0.0000 C   0  0  0  0  0  0  0  0  0  0  0  0
   -1.2117    6.0027    0.0000 C   0  0  0  0  0  0  0  0  0  0  0  0
   -2.8617    6.0027    0.0000 C   0  0  0  0  0  0  0  0  0  0  0  0
   -2.0367   10.9527    0.0000 C   0  0  0  0  0  0  0  0  0  0  0  0
   -2.0367   11.7777    0.0000 C   0  0  0  0  0  0  0  0  0  0  0  0
   -1.3222   12.1902    0.0000 C   0  0  0  0  0  0  0  0  0  0  0  0
   -0.6078   11.7777    0.0000 C   0  0  0  0  0  0  0  0  0  0  0  0
   -1.3222   13.0152    0.0000 F   0  0  0  0  0  0  0  0  0  0  0  0
  1  2  2  0  0  0  0
  2  3  1  0  0  0  0
  3  4  1  0  0  0  0
  4  5  1  0  0  0  0
  5  6  1  0  0  0  0
  5  7  2  0  0  0  0
  7  8  1  0  0  0  0
  8  9  2  0  0  0  0
  9 10  1  0  0  0  0
 10 11  1  0  0  0  0
 11 12  2  0  0  0  0
 11 13  1  0  0  0  0
  7 13  1  0  0  0  0
 13 14  2  0  0  0  0
 10 15  1  0  0  0  0
  9 16  1  0  0  0  0
 16 17  1  0  0  0  0
 17 18  1  0  0  0  0
 18 19  2  0  0  0  0
 18 20  1  0  0  0  0
 20 21  2  0  0  0  0
 21 22  1  0  0  0  0
 22 23  2  0  0  0  0
 23 24  1  0  0  0  0
 20 24  1  0  0  0  0
 23 25  1  0  0  0  0
 16 26  1  0  0  0  0
 16 27  1  0  0  0  0
  2 28  1  0  0  0  0
 28 29  2  0  0  0  0
 29 30  1  0  0  0  0
 30 31  2  0  0  0  0
  1 31  1  0  0  0  0
 30 32  1  0  0  0  0
M  END
>  <Name>
Raltegravir (MK-0518)

>  <CAS>
518048-05-0

>  <Formula>
C20H21FN6O5

>  <MolWt>
444.42 

>  <Bioactivity>
Raltegravir (MK-0518) is a potent integrase (IN) inhibitor for WT and S217Q PFV IN with IC50 of 90 nM and 40 nM in cell-free assays, respectively.

>  <Pathways>
Microbiology & Virology

>  <Target>
Integrase inhibitor

>  <Receptor>
Integrase (S217Q PFV);Integrase (WT PFV)

>  <Reference>
1. Hare S, et al. Proc Natl Acad Sci U S A. 2010, 107(46), 20057-20062.

$$$$
T2372
  Mrv1561503291623562D          

 39 43  0  0  0  0            999 V2000
    0.4507    2.7649    0.0000 C   0  0  0  0  0  0  0  0  0  0  0  0
   -0.3563    2.9365    0.0000 C   0  0  0  0  0  0  0  0  0  0  0  0
   -0.9083    2.3234    0.0000 C   0  0  0  0  0  0  0  0  0  0  0  0
   -1.7153    2.4949    0.0000 C   0  0  0  0  0  0  0  0  0  0  0  0
   -1.9702    3.2795    0.0000 C   0  0  0  0  0  0  0  0  0  0  0  0
   -1.4182    3.8926    0.0000 C   0  0  0  0  0  0  0  0  0  0  0  0
   -0.6112    3.7211    0.0000 C   0  0  0  0  0  0  0  0  0  0  0  0
   -2.7772    3.4510    0.0000 C   0  0  0  0  0  0  0  0  0  0  0  0
   -3.3292    2.8379    0.0000 O   0  0  0  0  0  0  0  0  0  0  0  0
   -3.0321    4.2357    0.0000 N   0  0  0  0  0  0  0  0  0  0  0  0
   -3.8391    4.4072    0.0000 C   0  0  0  0  0  0  0  0  0  0  0  0
   -4.3912    3.7941    0.0000 C   0  0  0  0  0  0  0  0  0  0  0  0
   -5.1981    3.9656    0.0000 C   0  0  0  0  0  0  0  0  0  0  0  0
   -5.4531    4.7502    0.0000 C   0  0  0  0  0  0  0  0  0  0  0  0
   -4.9010    5.3633    0.0000 C   0  0  0  0  0  0  0  0  0  0  0  0
   -4.0941    5.1918    0.0000 C   0  0  0  0  0  0  0  0  0  0  0  0
   -6.2600    4.9218    0.0000 C   0  0  0  0  0  0  0  0  0  0  0  0
   -6.5150    5.7064    0.0000 N   0  0  0  0  0  0  0  0  0  0  0  0
   -7.3219    5.8779    0.0000 C   0  0  0  0  0  0  0  0  0  0  0  0
   -7.5769    6.6625    0.0000 C   0  0  0  0  0  0  0  0  0  0  0  0
   -7.0249    7.2756    0.0000 N   0  0  0  0  0  0  0  0  0  0  0  0
   -6.2179    7.1041    0.0000 C   0  0  0  0  0  0  0  0  0  0  0  0
   -5.9629    6.3195    0.0000 C   0  0  0  0  0  0  0  0  0  0  0  0
   -7.2798    8.0603    0.0000 C   0  0  0  0  0  0  0  0  0  0  0  0
   -5.7502    3.3525    0.0000 C   0  0  0  0  0  0  0  0  0  0  0  0
   -6.3022    2.7394    0.0000 F   0  0  0  0  0  0  0  0  0  0  0  0
   -6.3632    3.9046    0.0000 F   0  0  0  0  0  0  0  0  0  0  0  0
   -5.1371    2.8005    0.0000 F   0  0  0  0  0  0  0  0  0  0  0  0
   -0.6534    1.5387    0.0000 C   0  0  0  0  0  0  0  0  0  0  0  0
   -0.3984    0.7541    0.0000 C   0  0  0  0  0  0  0  0  0  0  0  0
   -0.1435   -0.0305    0.0000 C   0  0  0  0  0  0  0  0  0  0  0  0
   -0.6284   -0.6979    0.0000 C   0  0  0  0  0  0  0  0  0  0  0  0
   -0.1435   -1.3654    0.0000 N   0  0  0  0  0  0  0  0  0  0  0  0
    0.6411   -1.1104    0.0000 C   0  0  0  0  0  0  0  0  0  0  0  0
    0.6411   -0.2854    0.0000 N   0  0  0  0  0  0  0  0  0  0  0  0
    1.3556    0.1271    0.0000 N   0  0  0  0  0  0  0  0  0  0  0  0
    2.0701   -0.2854    0.0000 C   0  0  0  0  0  0  0  0  0  0  0  0
    2.0701   -1.1104    0.0000 C   0  0  0  0  0  0  0  0  0  0  0  0
    1.3556   -1.5229    0.0000 C   0  0  0  0  0  0  0  0  0  0  0  0
  1  2  1  0  0  0  0
  2  3  2  0  0  0  0
  3  4  1  0  0  0  0
  4  5  2  0  0  0  0
  5  6  1  0  0  0  0
  6  7  2  0  0  0  0
  2  7  1  0  0  0  0
  5  8  1  0  0  0  0
  8  9  2  0  0  0  0
  8 10  1  0  0  0  0
 10 11  1  0  0  0  0
 11 12  2  0  0  0  0
 12 13  1  0  0  0  0
 13 14  2  0  0  0  0
 14 15  1  0  0  0  0
 15 16  2  0  0  0  0
 11 16  1  0  0  0  0
 14 17  1  0  0  0  0
 17 18  1  0  0  0  0
 18 19  1  0  0  0  0
 19 20  1  0  0  0  0
 20 21  1  0  0  0  0
 21 22  1  0  0  0  0
 22 23  1  0  0  0  0
 18 23  1  0  0  0  0
 21 24  1  0  0  0  0
 13 25  1  0  0  0  0
 25 26  1  0  0  0  0
 25 27  1  0  0  0  0
 25 28  1  0  0  0  0
  3 29  1  0  0  0  0
 29 30  3  0  0  0  0
 30 31  1  0  0  0  0
 31 32  2  0  0  0  0
 32 33  1  0  0  0  0
 33 34  2  0  0  0  0
 34 35  1  0  0  0  0
 31 35  1  0  0  0  0
 35 36  1  0  0  0  0
 36 37  2  0  0  0  0
 37 38  1  0  0  0  0
 38 39  2  0  0  0  0
 34 39  1  0  0  0  0
M  END
>  <Name>
AP24534  Ponatinib

>  <CAS>
943319-70-8

>  <Formula>
C29H27F3N6O

>  <MolWt>
532.56 

>  <Bioactivity>
Ponatinib is an orally bioavailable multitargeted receptor tyrosine kinase (RTK) inhibitor with potential antiangiogenic and antineoplastic activities. Ponatinib inhibits unmutated and all mutated forms of Bcr-Abl, including T315I, the highly drug therapy-resistant missense mutation of Bcr-Abl. This agent also inhibits other tyrosine kinases including those associated with vascular endothelial growth factor receptors (VEGFRs) and fibroblast growth factor receptors (FGFRs); in addition, it inhibits the tyrosine kinase receptor TIE2 and FMS-related tyrosine kinase receptor-3 (Flt3). RTK inhibition by ponatinib may result in the inhibition of cellular proliferation and angiogenesis and may induce cell death. Bcr-Abl is a fusion tyrosine kinase encoded by the Philadelphia chromosome.

>  <Pathways>
Tyrosine Kinase/Adaptors

>  <Target>
VEGFR inhibitor

>  <Receptor>
Abl, PDGFR?, VEGFR2, FGFR1, Src

>  <Reference>
1. O'Hare T, et al. Cancer Cell, 2009, 16(5), 401-412.

$$$$
71320-77-9
  Mrv1561503291623562D          

 18 19  0  0  0  0            999 V2000
   -0.0000   -1.6500    0.0000 C   0  0  0  0  0  0  0  0  0  0  0  0
   -0.0000   -2.4750    0.0000 C   0  0  0  0  0  0  0  0  0  0  0  0
    0.7145   -2.8875    0.0000 C   0  0  0  0  0  0  0  0  0  0  0  0
    1.4289   -2.4750    0.0000 N   0  0  0  0  0  0  0  0  0  0  0  0
    2.1434   -2.8875    0.0000 C   0  0  0  0  0  0  0  0  0  0  0  0
    2.8579   -2.4750    0.0000 C   0  0  0  0  0  0  0  0  0  0  0  0
    3.5724   -2.8875    0.0000 N   0  0  0  0  0  0  0  0  0  0  0  0
    4.2868   -2.4750    0.0000 C   0  0  0  0  0  0  0  0  0  0  0  0
    5.0013   -2.8875    0.0000 C   0  0  0  0  0  0  0  0  0  0  0  0
    5.0013   -3.7125    0.0000 O   0  0  0  0  0  0  0  0  0  0  0  0
    4.2868   -4.1250    0.0000 C   0  0  0  0  0  0  0  0  0  0  0  0
    3.5724   -3.7125    0.0000 C   0  0  0  0  0  0  0  0  0  0  0  0
    0.7145   -3.7125    0.0000 O   0  0  0  0  0  0  0  0  0  0  0  0
   -0.7145   -2.8875    0.0000 C   0  0  0  0  0  0  0  0  0  0  0  0
   -1.4289   -2.4750    0.0000 C   0  0  0  0  0  0  0  0  0  0  0  0
   -1.4289   -1.6500    0.0000 C   0  0  0  0  0  0  0  0  0  0  0  0
   -0.7145   -1.2375    0.0000 C   0  0  0  0  0  0  0  0  0  0  0  0
   -2.1434   -1.2375    0.0000 Cl  0  0  0  0  0  0  0  0  0  0  0  0
  1  2  2  0  0  0  0
  2  3  1  0  0  0  0
  3  4  1  0  0  0  0
  4  5  1  0  0  0  0
  5  6  1  0  0  0  0
  6  7  1  0  0  0  0
  7  8  1  0  0  0  0
  8  9  1  0  0  0  0
  9 10  1  0  0  0  0
 10 11  1  0  0  0  0
 11 12  1  0  0  0  0
  7 12  1  0  0  0  0
  3 13  2  0  0  0  0
  2 14  1  0  0  0  0
 14 15  2  0  0  0  0
 15 16  1  0  0  0  0
 16 17  2  0  0  0  0
  1 17  1  0  0  0  0
 16 18  1  0  0  0  0
M  END
>  <Name>
Moclobemide (Ro 111163)

>  <CAS>
71320-77-9

>  <Formula>
C13H17ClN2O2

>  <MolWt>
268.74 

>  <Bioactivity>
A reversible inhibitor of monoamine oxidase type A; (RIMA); (see MONOAMINE OXIDASE INHIBITORS) that has antidepressive properties.  

>  <Pathways>
Enzyme

>  <Target>
MAO inhibitor

>  <Receptor>
MAO

>  <Reference>
1. Da Prada M, et al. J Pharmacol Exp Ther, 1989, 248(1), 400-414.

$$$$
79561-22-1
  Mrv1561503291623562D          

 92 95  0  0  1  0            999 V2000
    7.0912   -2.3887    0.0000 C   0  0  1  0  0  0  0  0  0  0  0  0
    6.5163   -1.7970    0.0000 N   0  0  0  0  0  0  0  0  0  0  0  0
    5.7759   -2.1609    0.0000 C   0  0  0  0  0  0  0  0  0  0  0  0
    5.8932   -2.9776    0.0000 C   0  0  0  0  0  0  0  0  0  0  0  0
    6.7061   -3.1183    0.0000 C   0  0  0  0  0  0  0  0  0  0  0  0
    6.6571   -0.9841    0.0000 C   0  0  0  0  0  0  0  0  0  0  0  0
    7.4315   -0.6996    0.0000 O   0  0  0  0  0  0  0  0  0  0  0  0
    6.0236   -0.4558    0.0000 C   0  0  1  0  0  0  0  0  0  0  0  0
    5.2492   -0.7403    0.0000 N   0  0  0  0  0  0  0  0  0  0  0  0
    4.6156   -0.2119    0.0000 C   0  0  0  0  0  0  0  0  0  0  0  0
    4.7564    0.6010    0.0000 O   0  0  0  0  0  0  0  0  0  0  0  0
    3.8412   -0.4964    0.0000 C   0  0  1  0  0  0  0  0  0  0  0  0
    3.2076    0.0320    0.0000 N   0  0  0  0  0  0  0  0  0  0  0  0
    2.4332   -0.2525    0.0000 C   0  0  0  0  0  0  0  0  0  0  0  0
    2.2924   -1.0654    0.0000 O   0  0  0  0  0  0  0  0  0  0  0  0
    1.7996    0.2759    0.0000 C   0  0  2  0  0  0  0  0  0  0  0  0
    1.0252   -0.0087    0.0000 N   0  0  0  0  0  0  0  0  0  0  0  0
    0.3916    0.5197    0.0000 C   0  0  0  0  0  0  0  0  0  0  0  0
    0.5324    1.3326    0.0000 O   0  0  0  0  0  0  0  0  0  0  0  0
   -0.3827    0.2352    0.0000 C   0  0  1  0  0  0  0  0  0  0  0  0
   -1.0163    0.7636    0.0000 N   0  0  0  0  0  0  0  0  0  0  0  0
   -1.7907    0.4791    0.0000 C   0  0  0  0  0  0  0  0  0  0  0  0
   -1.9315   -0.3338    0.0000 O   0  0  0  0  0  0  0  0  0  0  0  0
   -2.4243    1.0075    0.0000 C   0  0  1  0  0  0  0  0  0  0  0  0
   -3.1987    0.7229    0.0000 N   0  0  0  0  0  0  0  0  0  0  0  0
   -3.8323    1.2513    0.0000 C   0  0  0  0  0  0  0  0  0  0  0  0
   -3.6915    2.0642    0.0000 O   0  0  0  0  0  0  0  0  0  0  0  0
   -4.6067    0.9668    0.0000 C   0  0  1  0  0  0  0  0  0  0  0  0
   -5.2403    1.4952    0.0000 N   0  0  0  0  0  0  0  0  0  0  0  0
   -6.0147    1.2107    0.0000 C   0  0  0  0  0  0  0  0  0  0  0  0
   -6.1555    0.3978    0.0000 O   0  0  0  0  0  0  0  0  0  0  0  0
   -6.6482    1.7391    0.0000 C   0  0  1  0  0  0  0  0  0  0  0  0
   -7.4226    1.4546    0.0000 N   0  0  0  0  0  0  0  0  0  0  0  0
   -8.0562    1.9829    0.0000 C   0  0  0  0  0  0  0  0  0  0  0  0
   -7.9154    2.7958    0.0000 O   0  0  0  0  0  0  0  0  0  0  0  0
   -8.8306    1.6984    0.0000 C   0  0  0  0  0  0  0  0  0  0  0  0
   -9.0556    0.9047    0.0000 N   0  0  0  0  0  0  0  0  0  0  0  0
   -9.8800    0.8734    0.0000 C   0  0  0  0  0  0  0  0  0  0  0  0
  -10.3393    0.1881    0.0000 O   0  0  0  0  0  0  0  0  0  0  0  0
  -10.1645    1.6478    0.0000 C   0  0  0  0  0  0  0  0  0  0  0  0
   -9.5160    2.1577    0.0000 C   0  0  0  0  0  0  0  0  0  0  0  0
   -6.5074    2.5520    0.0000 C   0  0  0  0  0  0  0  0  0  0  0  0
   -5.7331    2.8365    0.0000 C   0  0  0  0  0  0  0  0  0  0  0  0
   -5.5081    3.6302    0.0000 C   0  0  0  0  0  0  0  0  0  0  0  0
   -4.6837    3.6615    0.0000 N   0  0  0  0  0  0  0  0  0  0  0  0
   -4.3991    2.8871    0.0000 C   0  0  0  0  0  0  0  0  0  0  0  0
   -5.0477    2.3772    0.0000 N   0  0  0  0  0  0  0  0  0  0  0  0
   -4.7475    0.1539    0.0000 C   0  0  0  0  0  0  0  0  0  0  0  0
   -4.1139   -0.3745    0.0000 C   0  0  0  0  0  0  0  0  0  0  0  0
   -3.3140   -0.1725    0.0000 C   0  0  0  0  0  0  0  0  0  0  0  0
   -2.8747   -0.8708    0.0000 N   0  0  0  0  0  0  0  0  0  0  0  0
   -3.4031   -1.5044    0.0000 C   0  0  0  0  0  0  0  0  0  0  0  0
   -3.2858   -2.3210    0.0000 C   0  0  0  0  0  0  0  0  0  0  0  0
   -3.9344   -2.8309    0.0000 C   0  0  0  0  0  0  0  0  0  0  0  0
   -4.7002   -2.5241    0.0000 C   0  0  0  0  0  0  0  0  0  0  0  0
   -4.8175   -1.7075    0.0000 C   0  0  0  0  0  0  0  0  0  0  0  0
   -4.1689   -1.1976    0.0000 C   0  0  0  0  0  0  0  0  0  0  0  0
   -2.2835    1.8204    0.0000 C   0  0  0  0  0  0  0  0  0  0  0  0
   -1.5091    2.1049    0.0000 O   0  0  0  0  0  0  0  0  0  0  0  0
   -0.5235   -0.5777    0.0000 C   0  0  0  0  0  0  0  0  0  0  0  0
    0.1100   -1.1061    0.0000 C   0  0  0  0  0  0  0  0  0  0  0  0
    0.8844   -0.8216    0.0000 C   0  0  0  0  0  0  0  0  0  0  0  0
    1.5180   -1.3499    0.0000 C   0  0  0  0  0  0  0  0  0  0  0  0
    1.3772   -2.1628    0.0000 C   0  0  0  0  0  0  0  0  0  0  0  0
    2.0108   -2.6912    0.0000 O   0  0  0  0  0  0  0  0  0  0  0  0
    0.6028   -2.4473    0.0000 C   0  0  0  0  0  0  0  0  0  0  0  0
   -0.0307   -1.9190    0.0000 C   0  0  0  0  0  0  0  0  0  0  0  0
    1.9404    1.0888    0.0000 C   0  0  0  0  0  0  0  0  0  0  0  0
    3.7004   -1.3093    0.0000 C   0  0  0  0  0  0  0  0  0  0  0  0
    4.3340   -1.8377    0.0000 C   0  0  0  0  0  0  0  0  0  0  0  0
    5.1084   -1.5532    0.0000 C   0  0  0  0  0  0  0  0  0  0  0  0
    4.1932   -2.6506    0.0000 C   0  0  0  0  0  0  0  0  0  0  0  0
    6.1644    0.3571    0.0000 C   0  0  0  0  0  0  0  0  0  0  0  0
    6.9387    0.6417    0.0000 C   0  0  0  0  0  0  0  0  0  0  0  0
    7.0795    1.4546    0.0000 C   0  0  0  0  0  0  0  0  0  0  0  0
    7.8539    1.7391    0.0000 N   0  0  0  0  0  0  0  0  0  0  0  0
    7.9947    2.5520    0.0000 C   0  0  0  0  0  0  0  0  0  0  0  0
    8.7691    2.8365    0.0000 N   0  0  0  0  0  0  0  0  0  0  0  0
    7.3611    3.0803    0.0000 N   0  0  0  0  0  0  0  0  0  0  0  0
    7.9079   -2.2715    0.0000 C   0  0  0  0  0  0  0  0  0  0  0  0
    8.2146   -1.5056    0.0000 O   0  0  0  0  0  0  0  0  0  0  0  0
    8.4177   -2.9200    0.0000 N   0  0  0  0  0  0  0  0  0  0  0  0
    9.2344   -2.8027    0.0000 C   0  0  0  0  0  0  0  0  0  0  0  0
    9.7443   -3.4513    0.0000 C   0  0  0  0  0  0  0  0  0  0  0  0
   12.7496    0.7145    0.0000 C   0  0  0  0  0  0  0  0  0  0  0  0
   12.3371   -0.0000    0.0000 C   0  0  0  0  0  0  0  0  0  0  0  0
   12.7496   -0.7145    0.0000 O   0  0  0  0  0  0  0  0  0  0  0  0
   11.5121   -0.0000    0.0000 O   0  0  0  0  0  0  0  0  0  0  0  0
    0.4125   -5.1013    0.0000 C   0  0  0  0  0  0  0  0  0  0  0  0
    0.0000   -5.8158    0.0000 C   0  0  0  0  0  0  0  0  0  0  0  0
    0.4125   -6.5302    0.0000 O   0  0  0  0  0  0  0  0  0  0  0  0
   -0.8250   -5.8158    0.0000 O   0  0  0  0  0  0  0  0  0  0  0  0
  1  2  1  0  0  0  0
  2  3  1  0  0  0  0
  3  4  1  0  0  0  0
  4  5  1  0  0  0  0
  1  5  1  0  0  0  0
  2  6  1  0  0  0  0
  6  7  2  0  0  0  0
  6  8  1  0  0  0  0
  8  9  1  1  0  0  0
  9 10  1  0  0  0  0
 10 11  2  0  0  0  0
 10 12  1  0  0  0  0
 12 13  1  6  0  0  0
 13 14  1  0  0  0  0
 14 15  2  0  0  0  0
 14 16  1  0  0  0  0
 16 17  1  0  0  0  0
 17 18  1  0  0  0  0
 18 19  2  0  0  0  0
 18 20  1  0  0  0  0
 20 21  1  6  0  0  0
 21 22  1  0  0  0  0
 22 23  2  0  0  0  0
 22 24  1  0  0  0  0
 24 25  1  1  0  0  0
 25 26  1  0  0  0  0
 26 27  2  0  0  0  0
 26 28  1  0  0  0  0
 28 29  1  6  0  0  0
 29 30  1  0  0  0  0
 30 31  2  0  0  0  0
 30 32  1  0  0  0  0
 32 33  1  1  0  0  0
 33 34  1  0  0  0  0
 34 35  2  0  0  0  0
 34 36  1  0  0  0  0
 36 37  1  0  0  0  0
 37 38  1  0  0  0  0
 38 39  2  0  0  0  0
 38 40  1  0  0  0  0
 40 41  1  0  0  0  0
 36 41  1  0  0  0  0
 32 42  1  0  0  0  0
 42 43  1  0  0  0  0
 43 44  2  0  0  0  0
 44 45  1  0  0  0  0
 45 46  2  0  0  0  0
 46 47  1  0  0  0  0
 43 47  1  0  0  0  0
 28 48  1  0  0  0  0
 48 49  1  0  0  0  0
 49 50  2  0  0  0  0
 50 51  1  0  0  0  0
 51 52  1  0  0  0  0
 52 53  2  0  0  0  0
 53 54  1  0  0  0  0
 54 55  2  0  0  0  0
 55 56  1  0  0  0  0
 56 57  2  0  0  0  0
 49 57  1  0  0  0  0
 52 57  1  0  0  0  0
 24 58  1  0  0  0  0
 58 59  1  0  0  0  0
 20 60  1  0  0  0  0
 60 61  1  0  0  0  0
 61 62  2  0  0  0  0
 62 63  1  0  0  0  0
 63 64  2  0  0  0  0
 64 65  1  0  0  0  0
 64 66  1  0  0  0  0
 66 67  2  0  0  0  0
 61 67  1  0  0  0  0
 16 68  1  6  0  0  0
 12 69  1  0  0  0  0
 69 70  1  0  0  0  0
 70 71  1  0  0  0  0
 70 72  1  0  0  0  0
  8 73  1  0  0  0  0
 73 74  1  0  0  0  0
 74 75  1  0  0  0  0
 75 76  1  0  0  0  0
 76 77  2  0  0  0  0
 77 78  1  0  0  0  0
 77 79  1  0  0  0  0
  1 80  1  6  0  0  0
 80 81  2  0  0  0  0
 80 82  1  0  0  0  0
 82 83  1  0  0  0  0
 83 84  1  0  0  0  0
 85 86  1  0  0  0  0
 86 87  1  0  0  0  0
 86 88  2  0  0  0  0
 89 90  1  0  0  0  0
 90 91  1  0  0  0  0
 90 92  2  0  0  0  0
M  END
>  <Name>
Alarelin

>  <CAS>
79561-22-1

>  <Formula>
C56H78N16O12

>  <MolWt>
1167.32 

>  <Bioactivity>
Alarelin acetate is a synthetic GnRH agonist. Alarelin is found in higher amounts than that of LH-RH in rat hypophyseal stimulation of gonadotropin secretion in vivo and in vitro and in ovulation inductions.

>  <Pathways>
Others

>  <Target>
Others

>  <Receptor>
Others

>  <Reference>
1. Suocheng Weia, et al. Small Ruminant Research.2012,105 (1-3): 237-243.

$$$$
202914-84-9
  Mrv1561503291623562D          

 55 59  0  0  0  0            999 V2000
    0.0000   -0.8250    0.0000 C   0  0  0  0  0  0  0  0  0  0  0  0
    0.0000    0.0000    0.0000 S   0  0  0  0  0  0  0  0  0  0  0  0
    0.0000    0.8250    0.0000 O   0  0  0  0  0  0  0  0  0  0  0  0
    0.8250   -0.0000    0.0000 O   0  0  0  0  0  0  0  0  0  0  0  0
   -0.8250    0.0000    0.0000 O   0  0  0  0  0  0  0  0  0  0  0  0
    6.7877    0.8953    0.0000 C   0  0  0  0  0  0  0  0  0  0  0  0
    7.3398    0.2822    0.0000 C   0  0  0  0  0  0  0  0  0  0  0  0
    7.0848   -0.5024    0.0000 N   0  0  0  0  0  0  0  0  0  0  0  0
    6.2778   -0.6739    0.0000 C   0  0  0  0  0  0  0  0  0  0  0  0
    5.7258   -0.0608    0.0000 C   0  0  0  0  0  0  0  0  0  0  0  0
    5.9808    0.7238    0.0000 C   0  0  0  0  0  0  0  0  0  0  0  0
    5.4287    1.3369    0.0000 N   0  0  0  0  0  0  0  0  0  0  0  0
    4.6218    1.1653    0.0000 C   0  0  0  0  0  0  0  0  0  0  0  0
    4.3668    0.3807    0.0000 O   0  0  0  0  0  0  0  0  0  0  0  0
    4.0697    1.7784    0.0000 C   0  0  0  0  0  0  0  0  0  0  0  0
    3.2627    1.6069    0.0000 C   0  0  0  0  0  0  0  0  0  0  0  0
    2.7107    2.2200    0.0000 C   0  0  0  0  0  0  0  0  0  0  0  0
    2.9657    3.0046    0.0000 C   0  0  0  0  0  0  0  0  0  0  0  0
    3.7726    3.1762    0.0000 C   0  0  0  0  0  0  0  0  0  0  0  0
    4.3247    2.5631    0.0000 C   0  0  0  0  0  0  0  0  0  0  0  0
    5.1316    2.7346    0.0000 C   0  0  0  0  0  0  0  0  0  0  0  0
    5.3866    3.5192    0.0000 C   0  0  0  0  0  0  0  0  0  0  0  0
    6.1935    3.6907    0.0000 C   0  0  0  0  0  0  0  0  0  0  0  0
    6.7456    3.0776    0.0000 C   0  0  0  0  0  0  0  0  0  0  0  0
    6.4906    2.2930    0.0000 C   0  0  0  0  0  0  0  0  0  0  0  0
    5.6837    2.1215    0.0000 C   0  0  0  0  0  0  0  0  0  0  0  0
    7.5525    3.2492    0.0000 C   0  0  0  0  0  0  0  0  0  0  0  0
    8.3595    3.4207    0.0000 F   0  0  0  0  0  0  0  0  0  0  0  0
    7.3810    4.0561    0.0000 F   0  0  0  0  0  0  0  0  0  0  0  0
    7.7241    2.4422    0.0000 F   0  0  0  0  0  0  0  0  0  0  0  0
    7.6369   -1.1155    0.0000 C   0  0  0  0  0  0  0  0  0  0  0  0
    8.4438   -0.9440    0.0000 C   0  0  0  0  0  0  0  0  0  0  0  0
    8.9959   -1.5571    0.0000 C   0  0  0  0  0  0  0  0  0  0  0  0
    9.8028   -1.3855    0.0000 C   0  0  0  0  0  0  0  0  0  0  0  0
   10.3549   -1.9986    0.0000 C   0  0  0  0  0  0  0  0  0  0  0  0
   11.0223   -2.4836    0.0000 C   0  0  0  0  0  0  0  0  0  0  0  0
   11.8293   -2.3120    0.0000 C   0  0  0  0  0  0  0  0  0  0  0  0
   12.3813   -2.9251    0.0000 C   0  0  0  0  0  0  0  0  0  0  0  0
   12.1264   -3.7098    0.0000 C   0  0  0  0  0  0  0  0  0  0  0  0
   11.3194   -3.8813    0.0000 C   0  0  0  0  0  0  0  0  0  0  0  0
   10.7674   -3.2682    0.0000 C   0  0  0  0  0  0  0  0  0  0  0  0
    9.9424   -3.2682    0.0000 C   0  0  0  0  0  0  0  0  0  0  0  0
    9.3903   -3.8813    0.0000 C   0  0  0  0  0  0  0  0  0  0  0  0
    8.5834   -3.7098    0.0000 C   0  0  0  0  0  0  0  0  0  0  0  0
    8.3284   -2.9251    0.0000 C   0  0  0  0  0  0  0  0  0  0  0  0
    8.8805   -2.3120    0.0000 C   0  0  0  0  0  0  0  0  0  0  0  0
    9.6874   -2.4836    0.0000 C   0  0  0  0  0  0  0  0  0  0  0  0
   10.9069   -1.3855    0.0000 C   0  0  0  0  0  0  0  0  0  0  0  0
   11.7139   -1.5571    0.0000 O   0  0  0  0  0  0  0  0  0  0  0  0
   10.6520   -0.6009    0.0000 N   0  0  0  0  0  0  0  0  0  0  0  0
   11.2040    0.0122    0.0000 C   0  0  0  0  0  0  0  0  0  0  0  0
   12.0110   -0.1594    0.0000 C   0  0  0  0  0  0  0  0  0  0  0  0
   12.8179   -0.3309    0.0000 F   0  0  0  0  0  0  0  0  0  0  0  0
   11.8394   -0.9663    0.0000 F   0  0  0  0  0  0  0  0  0  0  0  0
   12.1825    0.6476    0.0000 F   0  0  0  0  0  0  0  0  0  0  0  0
  1  2  1  0  0  0  0
  2  3  2  0  0  0  0
  2  4  2  0  0  0  0
  2  5  1  0  0  0  0
  6  7  1  0  0  0  0
  7  8  1  0  0  0  0
  8  9  1  0  0  0  0
  9 10  1  0  0  0  0
 10 11  1  0  0  0  0
  6 11  1  0  0  0  0
 11 12  1  0  0  0  0
 12 13  1  0  0  0  0
 13 14  2  0  0  0  0
 13 15  1  0  0  0  0
 15 16  2  0  0  0  0
 16 17  1  0  0  0  0
 17 18  2  0  0  0  0
 18 19  1  0  0  0  0
 19 20  2  0  0  0  0
 15 20  1  0  0  0  0
 20 21  1  0  0  0  0
 21 22  2  0  0  0  0
 22 23  1  0  0  0  0
 23 24  2  0  0  0  0
 24 25  1  0  0  0  0
 25 26  2  0  0  0  0
 21 26  1  0  0  0  0
 24 27  1  0  0  0  0
 27 28  1  0  0  0  0
 27 29  1  0  0  0  0
 27 30  1  0  0  0  0
  8 31  1  0  0  0  0
 31 32  1  0  0  0  0
 32 33  1  0  0  0  0
 33 34  1  0  0  0  0
 34 35  1  0  0  0  0
 35 36  1  0  0  0  0
 36 37  2  0  0  0  0
 37 38  1  0  0  0  0
 38 39  2  0  0  0  0
 39 40  1  0  0  0  0
 40 41  2  0  0  0  0
 36 41  1  0  0  0  0
 41 42  1  0  0  0  0
 42 43  2  0  0  0  0
 43 44  1  0  0  0  0
 44 45  2  0  0  0  0
 45 46  1  0  0  0  0
 46 47  2  0  0  0  0
 42 47  1  0  0  0  0
 35 47  1  0  0  0  0
 35 48  1  0  0  0  0
 48 49  2  0  0  0  0
 48 50  1  0  0  0  0
 50 51  1  0  0  0  0
 51 52  1  0  0  0  0
 52 53  1  0  0  0  0
 52 54  1  0  0  0  0
 52 55  1  0  0  0  0
M  END
>  <Name>
Lomitapide Mesylate

>  <CAS>
202914-84-9

>  <Formula>
C40H41F6N3O5S

>  <MolWt>
789.83 

>  <Bioactivity>
Lomitapide Mesylate is a potent microsomal triglyceride transfer protein (MTP) inhibitor, used in the treatment of familial hypercholesterolemia.

>  <Pathways>
Metabolism

>  <Target>
MTP inhibitor

>  <Receptor>
MTP

>  <Reference>
1. Davis KA, Miyares MA. Am J Health Syst Pharm. 2014 Jun 15;71(12):1001-8. 

$$$$
130656-51-8
  Mrv1561503291623562D          

 31 30  0  0  0  0            999 V2000
    6.1683   -0.6738    0.0000 H   0  3  0  0  0  0  0  0  0  0  0  0
    8.5254    0.0000    0.0000 Cl  0  5  0  0  0  0  0  0  0  0  0  0
   -5.2633   -0.6738    0.0000 C   0  0  0  0  0  0  0  0  0  0  0  0
   -4.5488   -0.2613    0.0000 N   0  0  0  0  0  0  0  0  0  0  0  0
   -4.5488    0.5637    0.0000 C   0  0  0  0  0  0  0  0  0  0  0  0
   -5.2633    0.9762    0.0000 O   0  0  0  0  0  0  0  0  0  0  0  0
   -3.8343    0.9762    0.0000 C   0  0  0  0  0  0  0  0  0  0  0  0
   -3.1199    0.5637    0.0000 C   0  0  0  0  0  0  0  0  0  0  0  0
   -2.4054    0.9763    0.0000 N   0  0  0  0  0  0  0  0  0  0  0  0
   -1.6909    0.5638    0.0000 C   0  0  0  0  0  0  0  0  0  0  0  0
   -0.9764    0.9763    0.0000 C   0  0  0  0  0  0  0  0  0  0  0  0
   -0.2620    0.5638    0.0000 N   0  0  0  0  0  0  0  0  0  0  0  0
   -0.2620   -0.2612    0.0000 C   0  0  0  0  0  0  0  0  0  0  0  0
    0.4525   -0.6737    0.0000 C   0  0  0  0  0  0  0  0  0  0  0  0
    0.4525   -1.4987    0.0000 O   0  0  0  0  0  0  0  0  0  0  0  0
    0.4525    0.9763    0.0000 C   0  0  0  0  0  0  0  0  0  0  0  0
    1.1670    0.5638    0.0000 C   0  0  0  0  0  0  0  0  0  0  0  0
    1.8814    0.9763    0.0000 C   0  0  0  0  0  0  0  0  0  0  0  0
    2.5959    0.5638    0.0000 C   0  0  0  0  0  0  0  0  0  0  0  0
    3.3104    0.9763    0.0000 C   0  0  0  0  0  0  0  0  0  0  0  0
    4.0249    0.5638    0.0000 C   0  0  0  0  0  0  0  0  0  0  0  0
    4.0249   -0.2612    0.0000 C   0  0  0  0  0  0  0  0  0  0  0  0
    3.3104   -0.6737    0.0000 C   0  0  0  0  0  0  0  0  0  0  0  0
    2.5959   -0.2612    0.0000 C   0  0  0  0  0  0  0  0  0  0  0  0
    4.7393   -0.6737    0.0000 N   0  3  0  0  0  0  0  0  0  0  0  0
    5.4538   -0.2612    0.0000 O   0  5  0  0  0  0  0  0  0  0  0  0
    4.7393   -1.4987    0.0000 O   0  0  0  0  0  0  0  0  0  0  0  0
   -3.1199   -0.2612    0.0000 N   0  0  0  0  0  0  0  0  0  0  0  0
   -2.4054   -0.6737    0.0000 C   0  0  0  0  0  0  0  0  0  0  0  0
   -3.8343   -0.6738    0.0000 C   0  0  0  0  0  0  0  0  0  0  0  0
   -3.8343   -1.4988    0.0000 O   0  0  0  0  0  0  0  0  0  0  0  0
  3  4  1  0  0  0  0
  4  5  1  0  0  0  0
  5  6  2  0  0  0  0
  5  7  1  0  0  0  0
  7  8  2  0  0  0  0
  8  9  1  0  0  0  0
  9 10  1  0  0  0  0
 10 11  1  0  0  0  0
 11 12  1  0  0  0  0
 12 13  1  0  0  0  0
 13 14  1  0  0  0  0
 14 15  1  0  0  0  0
 12 16  1  0  0  0  0
 16 17  1  0  0  0  0
 17 18  1  0  0  0  0
 18 19  1  0  0  0  0
 19 20  4  0  0  0  0
 20 21  4  0  0  0  0
 21 22  4  0  0  0  0
 22 23  4  0  0  0  0
 23 24  4  0  0  0  0
 19 24  4  0  0  0  0
 22 25  1  0  0  0  0
 25 26  1  0  0  0  0
 25 27  2  0  0  0  0
  8 28  1  0  0  0  0
 28 29  1  0  0  0  0
 28 30  1  0  0  0  0
  4 30  1  0  0  0  0
 30 31  2  0  0  0  0
M  CHG  4   1   1   2  -1  25   1  26  -1
M  END
>  <Name>
Nifekalant HCl

>  <CAS>
130656-51-8

>  <Formula>
C19H28ClN5O5

>  <MolWt>
441.91 

>  <Bioactivity>
Nifekalant (INN) is a class III antiarrhythmic agent approved in Japan for the treatment of arrhythmias and ventricular tachycardia. It has the brand name Shinbit.

>  <Pathways>
Others

>  <Target>
Others

>  <Receptor>
Others

>  <Reference>
1. Oyabe A, Sano H. Nippon Yakurigaku Zasshi, 2002, 119 (2): 103–9.

$$$$
345909-26-4
  Mrv1561503291623562D          

 37 38  0  0  0  0            999 V2000
    0.6393   -0.9357    0.0000 C   0  0  0  0  0  0  0  0  0  0  0  0
    0.6393   -0.1107    0.0000 C   0  0  0  0  0  0  0  0  0  0  0  0
    1.3538    0.3018    0.0000 C   0  0  0  0  0  0  0  0  0  0  0  0
    2.0683   -0.1107    0.0000 C   0  0  0  0  0  0  0  0  0  0  0  0
    2.7827    0.3018    0.0000 C   0  0  0  0  0  0  0  0  0  0  0  0
    2.7827    1.1268    0.0000 O   0  0  0  0  0  0  0  0  0  0  0  0
    3.4972   -0.1107    0.0000 N   0  0  0  0  0  0  0  0  0  0  0  0
    4.2117    0.3018    0.0000 C   0  0  0  0  0  0  0  0  0  0  0  0
    4.9261   -0.1107    0.0000 C   0  0  0  0  0  0  0  0  0  0  0  0
    5.6406    0.3018    0.0000 S   0  0  0  0  0  0  0  0  0  0  0  0
    6.0531   -0.4127    0.0000 O   0  0  0  0  0  0  0  0  0  0  0  0
    5.2281    1.0162    0.0000 O   0  0  0  0  0  0  0  0  0  0  0  0
    6.3551    0.7143    0.0000 O   0  5  0  0  0  0  0  0  0  0  0  0
   -0.0752    0.3018    0.0000 C   0  0  0  0  0  0  0  0  0  0  0  0
   -0.1614    1.1222    0.0000 C   0  0  0  0  0  0  0  0  0  0  0  0
   -0.9684    1.2938    0.0000 C   0  0  0  0  0  0  0  0  0  0  0  0
   -1.3809    0.5793    0.0000 C   0  0  0  0  0  0  0  0  0  0  0  0
   -0.8288   -0.0338    0.0000 C   0  0  0  0  0  0  0  0  0  0  0  0
   -1.0838   -0.8184    0.0000 C   0  0  0  0  0  0  0  0  0  0  0  0
   -1.8907   -0.9899    0.0000 C   0  0  0  0  0  0  0  0  0  0  0  0
   -2.4428   -0.3769    0.0000 C   0  0  0  0  0  0  0  0  0  0  0  0
   -2.1878    0.4078    0.0000 C   0  0  0  0  0  0  0  0  0  0  0  0
   -2.7399    1.0209    0.0000 C   0  0  0  0  0  0  0  0  0  0  0  0
   -3.5468    0.8493    0.0000 C   0  0  0  0  0  0  0  0  0  0  0  0
   -3.8018    0.0647    0.0000 C   0  0  0  0  0  0  0  0  0  0  0  0
   -3.2497   -0.5484    0.0000 C   0  0  0  0  0  0  0  0  0  0  0  0
   -3.5047   -1.3330    0.0000 C   0  0  0  0  0  0  0  0  0  0  0  0
   -4.3117   -1.5045    0.0000 C   0  0  0  0  0  0  0  0  0  0  0  0
   -4.8637   -0.8914    0.0000 C   0  0  0  0  0  0  0  0  0  0  0  0
   -4.6088   -0.1068    0.0000 C   0  0  0  0  0  0  0  0  0  0  0  0
   -5.6707   -1.0630    0.0000 O   0  0  0  0  0  0  0  0  0  0  0  0
   -2.6977   -1.1615    0.0000 C   0  0  0  0  0  0  0  0  0  0  0  0
   -2.4849    1.8055    0.0000 O   0  0  0  0  0  0  0  0  0  0  0  0
   -0.5317   -1.4315    0.0000 O   0  0  0  0  0  0  0  0  0  0  0  0
   -0.2157   -0.5858    0.0000 C   0  0  0  0  0  0  0  0  0  0  0  0
    9.4267    0.0000    0.0000 O   0  0  0  0  0  0  0  0  0  0  0  0
    7.0696    1.1268    0.0000 Na  0  3  0  0  0  0  0  0  0  0  0  0
  1  2  1  0  0  0  0
  2  3  1  0  0  0  0
  3  4  1  0  0  0  0
  4  5  1  0  0  0  0
  5  6  2  0  0  0  0
  5  7  1  0  0  0  0
  7  8  1  0  0  0  0
  8  9  1  0  0  0  0
  9 10  1  0  0  0  0
 10 11  2  0  0  0  0
 10 12  2  0  0  0  0
 10 13  1  0  0  0  0
  2 14  1  0  0  0  0
 14 15  1  0  0  0  0
 15 16  1  0  0  0  0
 16 17  1  0  0  0  0
 17 18  1  0  0  0  0
 14 18  1  0  0  0  0
 18 19  1  0  0  0  0
 19 20  1  0  0  0  0
 20 21  1  0  0  0  0
 21 22  1  0  0  0  0
 17 22  1  0  0  0  0
 22 23  1  0  0  0  0
 23 24  1  0  0  0  0
 24 25  1  0  0  0  0
 25 26  1  0  0  0  0
 21 26  1  0  0  0  0
 26 27  1  0  0  0  0
 27 28  1  0  0  0  0
 28 29  1  0  0  0  0
 29 30  1  0  0  0  0
 25 30  1  0  0  0  0
 29 31  1  0  0  0  0
 26 32  1  0  0  0  0
 23 33  1  0  0  0  0
 19 34  1  0  0  0  0
 18 35  1  0  0  0  0
M  CHG  2  13  -1  37   1
M  END
>  <Name>
Taurocholic acid sodium salt hydrate

>  <CAS>
345909-26-4

>  <Formula>
C26H44NNaO7S.XH2O

>  <MolWt>
537.68 

>  <Bioactivity>
The product of conjugation of cholic acid with taurine. the sodium salt is the chief ingredient of the bile of carnivorous animals. It acts as a detergent to solubilize fats for absorption and is itself absorbed. It is used as a cholagogue and cholerectic. 

>  <Pathways>
Metabolism

>  <Target>
Biliation inhibitor

>  <Receptor>
Bile salt-activated lipase, Gastrotropin

>  <Reference>
1. Khatun Z, et al. J Control Release. 2014 Mar 10;177:64-73.

$$$$
T2585
  Mrv1561503291623562D          

 37 41  0  0  0  0            999 V2000
   -2.4750   -2.4750    0.0000 C   0  0  0  0  0  0  0  0  0  0  0  0
   -2.0625   -3.1895    0.0000 N   0  0  0  0  0  0  0  0  0  0  0  0
   -2.4750   -3.9039    0.0000 C   0  0  0  0  0  0  0  0  0  0  0  0
   -1.2375   -3.1895    0.0000 C   0  0  0  0  0  0  0  0  0  0  0  0
   -0.8250   -2.4750    0.0000 C   0  0  0  0  0  0  0  0  0  0  0  0
   -0.0000   -2.4750    0.0000 C   0  0  0  0  0  0  0  0  0  0  0  0
   -0.0000   -3.3000    0.0000 C   0  0  0  0  0  0  0  0  0  0  0  0
   -0.7145   -3.7125    0.0000 C   0  0  0  0  0  0  0  0  0  0  0  0
   -0.7145   -4.5375    0.0000 C   0  0  0  0  0  0  0  0  0  0  0  0
    0.0000   -4.9500    0.0000 C   0  0  0  0  0  0  0  0  0  0  0  0
    0.7145   -4.5375    0.0000 C   0  0  0  0  0  0  0  0  0  0  0  0
    1.4289   -4.9500    0.0000 C   0  0  0  0  0  0  0  0  0  0  0  0
    2.1434   -4.5375    0.0000 C   0  0  0  0  0  0  0  0  0  0  0  0
    2.1434   -3.7125    0.0000 C   0  0  0  0  0  0  0  0  0  0  0  0
    1.4289   -3.3000    0.0000 C   0  0  0  0  0  0  0  0  0  0  0  0
    0.7145   -3.7125    0.0000 C   0  0  0  0  0  0  0  0  0  0  0  0
   -0.0000   -1.6500    0.0000 C   0  0  0  0  0  0  0  0  0  0  0  0
   -0.7145   -1.2375    0.0000 C   0  0  0  0  0  0  0  0  0  0  0  0
   -1.4289   -1.6500    0.0000 C   0  0  0  0  0  0  0  0  0  0  0  0
   -2.1434   -1.2375    0.0000 C   0  0  0  0  0  0  0  0  0  0  0  0
   -2.1434   -0.4125    0.0000 C   0  0  0  0  0  0  0  0  0  0  0  0
   -1.4289   -0.0000    0.0000 C   0  0  0  0  0  0  0  0  0  0  0  0
   -0.7145   -0.4125    0.0000 C   0  0  0  0  0  0  0  0  0  0  0  0
    0.7145   -1.2375    0.0000 C   0  0  0  0  0  0  0  0  0  0  0  0
    0.7145   -0.4125    0.0000 C   0  0  0  0  0  0  0  0  0  0  0  0
    1.4289   -0.0000    0.0000 N   0  0  0  0  0  0  0  0  0  0  0  0
    2.1434   -0.4125    0.0000 C   0  0  0  0  0  0  0  0  0  0  0  0
    2.8579   -0.0000    0.0000 C   0  0  0  0  0  0  0  0  0  0  0  0
    3.5724   -0.4125    0.0000 C   0  0  0  0  0  0  0  0  0  0  0  0
    3.5724   -1.2375    0.0000 C   0  0  0  0  0  0  0  0  0  0  0  0
    2.8579   -1.6500    0.0000 C   0  0  0  0  0  0  0  0  0  0  0  0
    2.1434   -1.2375    0.0000 C   0  0  0  0  0  0  0  0  0  0  0  0
    1.4289   -1.6500    0.0000 C   0  0  0  0  0  0  0  0  0  0  0  0
    4.2868   -1.6500    0.0000 Br  0  0  0  0  0  0  0  0  0  0  0  0
   -0.0000   -0.0000    0.0000 O   0  0  0  0  0  0  0  0  0  0  0  0
   -0.0000    0.8250    0.0000 C   0  0  0  0  0  0  0  0  0  0  0  0
    0.8250   -2.4750    0.0000 O   0  0  0  0  0  0  0  0  0  0  0  0
  1  2  1  0  0  0  0
  2  3  1  0  0  0  0
  2  4  1  0  0  0  0
  4  5  1  0  0  0  0
  5  6  1  0  0  0  0
  6  7  1  0  0  0  0
  7  8  2  0  0  0  0
  8  9  1  0  0  0  0
  9 10  2  0  0  0  0
 10 11  1  0  0  0  0
 11 12  2  0  0  0  0
 12 13  1  0  0  0  0
 13 14  2  0  0  0  0
 14 15  1  0  0  0  0
 15 16  2  0  0  0  0
 11 16  1  0  0  0  0
  7 16  1  0  0  0  0
  6 17  1  0  0  0  0
 17 18  1  0  0  0  0
 18 19  2  0  0  0  0
 19 20  1  0  0  0  0
 20 21  2  0  0  0  0
 21 22  1  0  0  0  0
 22 23  2  0  0  0  0
 18 23  1  0  0  0  0
 17 24  1  0  0  0  0
 24 25  2  0  0  0  0
 25 26  1  0  0  0  0
 26 27  2  0  0  0  0
 27 28  1  0  0  0  0
 28 29  2  0  0  0  0
 29 30  1  0  0  0  0
 30 31  2  0  0  0  0
 31 32  1  0  0  0  0
 27 32  1  0  0  0  0
 32 33  2  0  0  0  0
 24 33  1  0  0  0  0
 30 34  1  0  0  0  0
 25 35  1  0  0  0  0
 35 36  1  0  0  0  0
  6 37  1  0  0  0  0
M  END
>  <Name>
Bedaquiline(TMC207; R207910)

>  <CAS>
843663-66-1

>  <Formula>
C32H31BrN2O2

>  <MolWt>
555.50 

>  <Bioactivity>
Bedaquiline(TMC207; R207910) is an anti-tuberculosis drug which selectively inhibit the mycobacterial energy metabolism i.e. ATP synthesis and found to be effective against all states of Mycobacterium tuberculosis.

>  <Pathways>
Microbiology & Virology

>  <Target>
Antibiotic

>  <Receptor>
Tubercle bacillus

>  <Reference>
1. Lakshmanan M, et al. J Young Pharm. 2013 Dec;5(4):112-115.

$$$$
T2125
  Mrv1561503291623562D          

 37 41  0  0  0  0            999 V2000
    0.0000   -2.4750    0.0000 C   0  0  0  0  0  0  0  0  0  0  0  0
    0.0000   -1.6500    0.0000 C   0  0  0  0  0  0  0  0  0  0  0  0
    0.7145   -1.2375    0.0000 C   0  0  0  0  0  0  0  0  0  0  0  0
    0.7145   -0.4125    0.0000 C   0  0  0  0  0  0  0  0  0  0  0  0
   -0.0000    0.0000    0.0000 C   0  0  0  0  0  0  0  0  0  0  0  0
   -0.7145   -0.4125    0.0000 N   0  0  0  0  0  0  0  0  0  0  0  0
   -0.7145   -1.2375    0.0000 C   0  0  0  0  0  0  0  0  0  0  0  0
   -1.4289   -1.6500    0.0000 O   0  0  0  0  0  0  0  0  0  0  0  0
   -1.4289   -0.0000    0.0000 C   0  0  0  0  0  0  0  0  0  0  0  0
   -0.0000    0.8250    0.0000 N   0  0  0  0  0  0  0  0  0  0  0  0
   -0.7145    1.2375    0.0000 C   0  0  0  0  0  0  0  0  0  0  0  0
   -0.7145    2.0625    0.0000 C   0  0  0  0  0  0  0  0  0  0  0  0
   -1.4289    2.4750    0.0000 C   0  0  0  0  0  0  0  0  0  0  0  0
   -2.1434    2.0625    0.0000 C   0  0  0  0  0  0  0  0  0  0  0  0
   -2.1434    1.2375    0.0000 C   0  0  0  0  0  0  0  0  0  0  0  0
   -1.4289    0.8250    0.0000 C   0  0  0  0  0  0  0  0  0  0  0  0
   -2.8579    2.4750    0.0000 I   0  0  0  0  0  0  0  0  0  0  0  0
   -0.0000    2.4750    0.0000 F   0  0  0  0  0  0  0  0  0  0  0  0
    1.4289    0.0000    0.0000 C   0  0  0  0  0  0  0  0  0  0  0  0
    1.4289    0.8250    0.0000 O   0  0  0  0  0  0  0  0  0  0  0  0
    2.1434   -0.4125    0.0000 N   0  0  0  0  0  0  0  0  0  0  0  0
    2.1434   -1.2375    0.0000 C   0  0  0  0  0  0  0  0  0  0  0  0
    2.8579   -1.6500    0.0000 O   0  0  0  0  0  0  0  0  0  0  0  0
    1.4289   -1.6500    0.0000 N   0  0  0  0  0  0  0  0  0  0  0  0
    1.4289   -2.4750    0.0000 C   0  0  0  0  0  0  0  0  0  0  0  0
    2.1434   -2.8875    0.0000 C   0  0  0  0  0  0  0  0  0  0  0  0
    2.1434   -3.7125    0.0000 C   0  0  0  0  0  0  0  0  0  0  0  0
    1.4289   -4.1250    0.0000 C   0  0  0  0  0  0  0  0  0  0  0  0
    0.7145   -3.7125    0.0000 C   0  0  0  0  0  0  0  0  0  0  0  0
    0.7145   -2.8875    0.0000 C   0  0  0  0  0  0  0  0  0  0  0  0
    2.8579   -4.1250    0.0000 N   0  0  0  0  0  0  0  0  0  0  0  0
    2.8579   -4.9500    0.0000 C   0  0  0  0  0  0  0  0  0  0  0  0
    3.5724   -5.3625    0.0000 O   0  0  0  0  0  0  0  0  0  0  0  0
    2.1434   -5.3625    0.0000 C   0  0  0  0  0  0  0  0  0  0  0  0
    2.8579    0.0000    0.0000 C   0  0  0  0  0  0  0  0  0  0  0  0
    3.2704    0.7145    0.0000 C   0  0  0  0  0  0  0  0  0  0  0  0
    3.6829   -0.0000    0.0000 C   0  0  0  0  0  0  0  0  0  0  0  0
  1  2  1  0  0  0  0
  2  3  2  0  0  0  0
  3  4  1  0  0  0  0
  4  5  2  0  0  0  0
  5  6  1  0  0  0  0
  6  7  1  0  0  0  0
  2  7  1  0  0  0  0
  7  8  2  0  0  0  0
  6  9  1  0  0  0  0
  5 10  1  0  0  0  0
 10 11  1  0  0  0  0
 11 12  2  0  0  0  0
 12 13  1  0  0  0  0
 13 14  2  0  0  0  0
 14 15  1  0  0  0  0
 15 16  2  0  0  0  0
 11 16  1  0  0  0  0
 14 17  1  0  0  0  0
 12 18  1  0  0  0  0
  4 19  1  0  0  0  0
 19 20  2  0  0  0  0
 19 21  1  0  0  0  0
 21 22  1  0  0  0  0
 22 23  2  0  0  0  0
 22 24  1  0  0  0  0
  3 24  1  0  0  0  0
 24 25  1  0  0  0  0
 25 26  2  0  0  0  0
 26 27  1  0  0  0  0
 27 28  2  0  0  0  0
 28 29  1  0  0  0  0
 29 30  2  0  0  0  0
 25 30  1  0  0  0  0
 27 31  1  0  0  0  0
 31 32  1  0  0  0  0
 32 33  2  0  0  0  0
 32 34  1  0  0  0  0
 21 35  1  0  0  0  0
 35 36  1  0  0  0  0
 36 37  1  0  0  0  0
 35 37  1  0  0  0  0
M  END
>  <Name>
Trametinib (GSK1120212)

>  <CAS>
871700-17-3

>  <Formula>
C26H23FIN5O4

>  <MolWt>
615.39 

>  <Bioactivity>
Trametinib is an orally bioavailable inhibitor of mitogen-activated protein kinase kinase (MEK MAPK/ERK kinase) with potential antineoplastic activity. Trametinib specifically binds to and inhibits MEK 1 and 2, resulting in an inhibition of growth factor-mediated cell signaling and cellular proliferation in various cancers. MEK 1 and 2, dual specificity threonine/tyrosine kinases often upregulated in various cancer cell types, play a key role in the activation of the RAS/RAF/MEK/ERK signaling pathway that regulates cell growth.

>  <Pathways>
MAPK Signaling

>  <Target>
MEK inhibitor

>  <Receptor>
MEK1, MEK2

>  <Reference>
1. Yamaguchi T, et al. Int J Oncol, 2011, 39(1), 23-31.

$$$$
11018-89-6
  Mrv1561503291623562D          

 49 46  0  0  1  0            999 V2000
    0.0000    0.0000    0.0000 O   0  0  0  0  0  0  0  0  0  0  0  0
    7.8221    0.3451    0.0000 C   0  0  2  0  0  0  0  0  0  0  0  0
    8.3539    0.9758    0.0000 C   0  0  0  0  0  0  0  0  0  0  0  0
    9.1660    0.8306    0.0000 C   0  0  0  0  0  0  0  0  0  0  0  0
    8.9683    1.6316    0.0000 O   0  0  0  0  0  0  0  0  0  0  0  0
    9.4463    0.0547    0.0000 C   0  0  0  0  0  0  0  0  0  0  0  0
    8.9145   -0.5760    0.0000 C   0  0  0  0  0  0  0  0  0  0  0  0
    8.1024   -0.4308    0.0000 C   0  0  1  0  0  0  0  0  0  0  0  0
    7.5705   -1.0615    0.0000 O   0  0  0  0  0  0  0  0  0  0  0  0
   10.2709    0.0815    0.0000 C   0  0  2  0  0  0  0  0  0  0  0  0
   10.5002    0.8740    0.0000 C   0  0  0  0  0  0  0  0  0  0  0  0
    9.8173    1.3369    0.0000 C   0  0  0  0  0  0  0  0  0  0  0  0
   10.7772   -0.5699    0.0000 C   0  0  0  0  0  0  0  0  0  0  0  0
   11.6018   -0.5431    0.0000 C   0  0  0  0  0  0  0  0  0  0  0  0
   11.8821   -1.3190    0.0000 C   0  0  0  0  0  0  0  0  0  0  0  0
   11.2308   -1.8253    0.0000 O   0  0  0  0  0  0  0  0  0  0  0  0
   10.5479   -1.3624    0.0000 C   0  0  0  0  0  0  0  0  0  0  0  0
   12.6746   -1.5483    0.0000 O   0  0  0  0  0  0  0  0  0  0  0  0
    9.8062   -0.6877    0.0000 C   0  0  0  0  0  0  0  0  0  0  0  0
    8.0736    1.7517    0.0000 C   0  0  0  0  0  0  0  0  0  0  0  0
    7.2615    1.8969    0.0000 C   0  0  0  0  0  0  0  0  0  0  0  0
    6.7297    1.2662    0.0000 C   0  0  0  0  0  0  0  0  0  0  0  0
    6.4494    2.0422    0.0000 O   0  0  0  0  0  0  0  0  0  0  0  0
    7.0099    0.4903    0.0000 C   0  0  0  0  0  0  0  0  0  0  0  0
    6.4781   -0.1404    0.0000 C   0  0  2  0  0  0  0  0  0  0  0  0
    6.7584   -0.9163    0.0000 O   0  0  0  0  0  0  0  0  0  0  0  0
    5.6660    0.0048    0.0000 C   0  0  0  0  0  0  0  0  0  0  0  0
    5.3857    0.7807    0.0000 C   0  0  2  0  0  0  0  0  0  0  0  0
    4.5736    0.9260    0.0000 O   0  0  0  0  0  0  0  0  0  0  0  0
    4.0418    0.2952    0.0000 C   0  0  0  0  0  0  0  0  0  0  0  0
    4.3221   -0.4807    0.0000 O   0  0  0  0  0  0  0  0  0  0  0  0
    3.7903   -1.1114    0.0000 C   0  0  0  0  0  0  0  0  0  0  0  0
    2.9781   -0.9662    0.0000 C   0  0  0  0  0  0  0  0  0  0  0  0
    2.4463   -1.5969    0.0000 O   0  0  0  0  0  0  0  0  0  0  0  0
    2.6978   -0.1902    0.0000 C   0  0  0  0  0  0  0  0  0  0  0  0
    1.8857   -0.0450    0.0000 O   0  0  0  0  0  0  0  0  0  0  0  0
    3.2297    0.4405    0.0000 C   0  0  0  0  0  0  0  0  0  0  0  0
    2.9494    1.2164    0.0000 O   0  0  0  0  0  0  0  0  0  0  0  0
    4.0706   -1.8873    0.0000 C   0  0  0  0  0  0  0  0  0  0  0  0
    5.9175    1.4114    0.0000 C   0  0  0  0  0  0  0  0  0  0  0  0
    7.2902   -0.2856    0.0000 C   0  0  0  0  0  0  0  0  0  0  0  0
    7.2307   -1.1085    0.0000 O   0  0  0  0  0  0  0  0  0  0  0  0
   15.0317    0.0000    0.0000 O   0  0  0  0  0  0  0  0  0  0  0  0
    0.0000   -3.5373    0.0000 O   0  0  0  0  0  0  0  0  0  0  0  0
    2.3571   -3.5373    0.0000 O   0  0  0  0  0  0  0  0  0  0  0  0
    4.7143   -3.5373    0.0000 O   0  0  0  0  0  0  0  0  0  0  0  0
    0.0000   -5.1873    0.0000 O   0  0  0  0  0  0  0  0  0  0  0  0
    2.3571   -5.1873    0.0000 O   0  0  0  0  0  0  0  0  0  0  0  0
    4.7143   -5.1873    0.0000 O   0  0  0  0  0  0  0  0  0  0  0  0
  2  3  1  0  0  0  0
  3  4  1  0  0  0  0
  4  5  1  0  0  0  0
  4  6  1  0  0  0  0
  6  7  1  0  0  0  0
  7  8  1  0  0  0  0
  2  8  1  0  0  0  0
  8  9  1  1  0  0  0
  6 10  1  0  0  0  0
 10 11  1  0  0  0  0
 11 12  1  0  0  0  0
  4 12  1  0  0  0  0
 10 13  1  6  0  0  0
 13 14  2  0  0  0  0
 14 15  1  0  0  0  0
 15 16  1  0  0  0  0
 16 17  1  0  0  0  0
 13 17  1  0  0  0  0
 15 18  2  0  0  0  0
  6 19  1  0  0  0  0
  3 20  1  0  0  0  0
 20 21  1  0  0  0  0
 21 22  1  0  0  0  0
 22 23  1  0  0  0  0
 22 24  1  0  0  0  0
  2 24  1  6  0  0  0
 24 25  1  0  0  0  0
 25 26  1  6  0  0  0
 25 27  1  0  0  0  0
 27 28  1  0  0  0  0
 28 29  1  6  0  0  0
 29 30  1  0  0  0  0
 30 31  1  0  0  0  0
 31 32  1  0  0  0  0
 32 33  1  0  0  0  0
 33 34  1  0  0  0  0
 33 35  1  0  0  0  0
 35 36  1  0  0  0  0
 35 37  1  0  0  0  0
 30 37  1  0  0  0  0
 37 38  1  0  0  0  0
 32 39  1  0  0  0  0
 28 40  1  0  0  0  0
 22 40  1  0  0  0  0
 24 41  1  0  0  0  0
 41 42  1  0  0  0  0
M  END
>  <Name>
Ouabain octahydrate

>  <CAS>
11018-89-6

>  <Formula>
C29H44O128H2O

>  <MolWt>
728.77 

>  <Bioactivity>
ouabain,A cardioactive glycoside consisting of rhamnose and ouabagenin, obtained from the seeds of Strophanthus gratus and other plants of the Apocynaceae; used like digitalis. It is commonly used in cell biological studies as an inhibitor of the NA-K(+)-exchanging ATPase. 

>  <Pathways>
Membrane Transporter/Ion Channel

>  <Target>
ATPase inhibitor

>  <Receptor>
Na+, K+-ATPase

>  <Reference>
1. Mentre P, Debey P. Cell Mol Biol (Noisy-le-grand). 1999 Sep;45(6):781-91. 

$$$$
32795-44-1
  Mrv1561503291623562D          

 22 20  0  0  0  0            999 V2000
    0.4125    0.0000    0.0000 H   0  3  0  0  0  0  0  0  0  0  0  0
    5.4804    0.1429    0.0000 C   0  0  0  0  0  0  0  0  0  0  0  0
    5.8929   -0.5716    0.0000 C   0  0  0  0  0  0  0  0  0  0  0  0
    6.7179   -0.5716    0.0000 C   0  0  0  0  0  0  0  0  0  0  0  0
    7.1304   -1.2860    0.0000 O   0  0  0  0  0  0  0  0  0  0  0  0
    7.1304    0.1429    0.0000 N   0  0  0  0  0  0  0  0  0  0  0  0
    7.9554    0.1429    0.0000 C   0  0  0  0  0  0  0  0  0  0  0  0
    8.3679    0.8574    0.0000 C   0  0  0  0  0  0  0  0  0  0  0  0
    9.1929    0.8574    0.0000 N   0  0  0  0  0  0  0  0  0  0  0  0
    9.6054    1.5718    0.0000 C   0  0  0  0  0  0  0  0  0  0  0  0
   10.4304    1.5718    0.0000 C   0  0  0  0  0  0  0  0  0  0  0  0
    9.6054    0.1429    0.0000 C   0  0  0  0  0  0  0  0  0  0  0  0
    9.1929   -0.5716    0.0000 C   0  0  0  0  0  0  0  0  0  0  0  0
    5.4804   -1.2860    0.0000 C   0  0  0  0  0  0  0  0  0  0  0  0
    4.6554   -1.2860    0.0000 C   0  0  0  0  0  0  0  0  0  0  0  0
    4.2429   -0.5716    0.0000 C   0  0  0  0  0  0  0  0  0  0  0  0
    4.6554    0.1429    0.0000 C   0  0  0  0  0  0  0  0  0  0  0  0
    3.4179   -0.5716    0.0000 N   0  0  0  0  0  0  0  0  0  0  0  0
    3.0054    0.1429    0.0000 C   0  0  0  0  0  0  0  0  0  0  0  0
    2.1804    0.1429    0.0000 O   0  0  0  0  0  0  0  0  0  0  0  0
    3.4179    0.8574    0.0000 C   0  0  0  0  0  0  0  0  0  0  0  0
   -0.4125    0.0000    0.0000 Cl  0  5  0  0  0  0  0  0  0  0  0  0
  2  3  2  0  0  0  0
  3  4  1  0  0  0  0
  4  5  2  0  0  0  0
  4  6  1  0  0  0  0
  6  7  1  0  0  0  0
  7  8  1  0  0  0  0
  8  9  1  0  0  0  0
  9 10  1  0  0  0  0
 10 11  1  0  0  0  0
  9 12  1  0  0  0  0
 12 13  1  0  0  0  0
  3 14  1  0  0  0  0
 14 15  2  0  0  0  0
 15 16  1  0  0  0  0
 16 17  2  0  0  0  0
  2 17  1  0  0  0  0
 16 18  1  0  0  0  0
 18 19  1  0  0  0  0
 19 20  2  0  0  0  0
 19 21  1  0  0  0  0
M  CHG  2   1   1  22  -1
M  END
>  <Name>
Acecainide

>  <CAS>
32795-44-1

>  <Formula>
C15H24ClN3O2

>  <MolWt>
277.36 

>  <Bioactivity>
A major metabolite of PROCAINAMIDE. Its anti-arrhythmic action may cause cardiac toxicity in kidney failure. 

>  <Pathways>
Membrane Transporter/Ion Channel

>  <Target>
Sodium Channel

>  <Receptor>
Sodium Channel

>  <Reference>
1. Weiss R, et al. Circulation. 2002 Feb 12;105(6):707-13. 

$$$$
749-02-0
  Mrv1561503291623562D          

 29 32  0  0  0  0            999 V2000
    0.4875    2.4777    0.0000 C   0  0  0  0  0  0  0  0  0  0  0  0
    0.7425    3.2623    0.0000 C   0  0  0  0  0  0  0  0  0  0  0  0
    1.5494    3.4338    0.0000 C   0  0  0  0  0  0  0  0  0  0  0  0
    2.1015    2.8207    0.0000 C   0  0  0  0  0  0  0  0  0  0  0  0
    1.8465    2.0361    0.0000 C   0  0  0  0  0  0  0  0  0  0  0  0
    1.0396    1.8646    0.0000 C   0  0  0  0  0  0  0  0  0  0  0  0
    0.7846    1.0799    0.0000 N   0  0  0  0  0  0  0  0  0  0  0  0
    1.2695    0.4125    0.0000 C   0  0  0  0  0  0  0  0  0  0  0  0
    0.7846   -0.2549    0.0000 C   0  0  0  0  0  0  0  0  0  0  0  0
   -0.0000   -0.0000    0.0000 N   0  0  0  0  0  0  0  0  0  0  0  0
    0.0000    0.8250    0.0000 C   0  0  0  0  0  0  0  0  0  0  0  0
    1.0396   -1.0396    0.0000 O   0  0  0  0  0  0  0  0  0  0  0  0
    1.6820    1.1270    0.0000 C   0  0  0  0  0  0  0  0  0  0  0  0
    2.5070    1.1270    0.0000 C   0  0  0  0  0  0  0  0  0  0  0  0
    2.9195    0.4125    0.0000 N   0  0  0  0  0  0  0  0  0  0  0  0
    3.7445    0.4125    0.0000 C   0  0  0  0  0  0  0  0  0  0  0  0
    4.1570    1.1270    0.0000 C   0  0  0  0  0  0  0  0  0  0  0  0
    4.9820    1.1270    0.0000 C   0  0  0  0  0  0  0  0  0  0  0  0
    5.3945    1.8414    0.0000 C   0  0  0  0  0  0  0  0  0  0  0  0
    6.2195    1.8414    0.0000 C   0  0  0  0  0  0  0  0  0  0  0  0
    6.6320    2.5559    0.0000 C   0  0  0  0  0  0  0  0  0  0  0  0
    7.4570    2.5559    0.0000 C   0  0  0  0  0  0  0  0  0  0  0  0
    7.8695    1.8414    0.0000 C   0  0  0  0  0  0  0  0  0  0  0  0
    8.6945    1.8414    0.0000 F   0  0  0  0  0  0  0  0  0  0  0  0
    7.4570    1.1270    0.0000 C   0  0  0  0  0  0  0  0  0  0  0  0
    6.6320    1.1270    0.0000 C   0  0  0  0  0  0  0  0  0  0  0  0
    4.9820    2.5559    0.0000 O   0  0  0  0  0  0  0  0  0  0  0  0
    2.5070   -0.3020    0.0000 C   0  0  0  0  0  0  0  0  0  0  0  0
    1.6820   -0.3020    0.0000 C   0  0  0  0  0  0  0  0  0  0  0  0
  1  2  2  0  0  0  0
  2  3  1  0  0  0  0
  3  4  2  0  0  0  0
  4  5  1  0  0  0  0
  5  6  2  0  0  0  0
  1  6  1  0  0  0  0
  6  7  1  0  0  0  0
  7  8  1  0  0  0  0
  8  9  1  0  0  0  0
  9 10  1  0  0  0  0
 10 11  1  0  0  0  0
  7 11  1  0  0  0  0
  9 12  2  0  0  0  0
  8 13  1  0  0  0  0
 13 14  1  0  0  0  0
 14 15  1  0  0  0  0
 15 16  1  0  0  0  0
 16 17  1  0  0  0  0
 17 18  1  0  0  0  0
 18 19  1  0  0  0  0
 19 20  1  0  0  0  0
 20 21  2  0  0  0  0
 21 22  1  0  0  0  0
 22 23  2  0  0  0  0
 23 24  1  0  0  0  0
 23 25  1  0  0  0  0
 25 26  2  0  0  0  0
 20 26  1  0  0  0  0
 19 27  2  0  0  0  0
 15 28  1  0  0  0  0
 28 29  1  0  0  0  0
  8 29  1  0  0  0  0
M  END
>  <Name>
Spiperone

>  <CAS>
749-02-0

>  <Formula>
C23H26FN3O2

>  <MolWt>
395.47 

>  <Bioactivity>
A spiro butyrophenone analog similar to HALOPERIDOL and other related compounds. It has been recommended in the treatment of SCHIZOPHRENIA. 

>  <Pathways>
Neuroscience

>  <Target>
Dopamine Receptor antagonist

>  <Receptor>
Dopamine receptor

>  <Reference>
1. Zheng LT, et al.J Neurochem. 2008 Dec;107(5):1225-35. 

$$$$
1098-60-8
  Mrv1561503291623562D          

 26 26  0  0  0  0            999 V2000
    0.4125    0.0000    0.0000 H   0  3  0  0  0  0  0  0  0  0  0  0
    3.7272    1.0141    0.0000 C   0  0  0  0  0  0  0  0  0  0  0  0
    3.0127    1.4266    0.0000 C   0  0  0  0  0  0  0  0  0  0  0  0
    2.2982    1.0141    0.0000 C   0  0  0  0  0  0  0  0  0  0  0  0
    2.2982    0.1891    0.0000 C   0  0  0  0  0  0  0  0  0  0  0  0
    3.0127   -0.2234    0.0000 C   0  0  0  0  0  0  0  0  0  0  0  0
    3.7272    0.1891    0.0000 C   0  0  0  0  0  0  0  0  0  0  0  0
    4.4416   -0.2234    0.0000 N   0  0  0  0  0  0  0  0  0  0  0  0
    5.1561    0.1891    0.0000 C   0  0  0  0  0  0  0  0  0  0  0  0
    5.8706   -0.2234    0.0000 C   0  0  0  0  0  0  0  0  0  0  0  0
    6.5850    0.1891    0.0000 C   0  0  0  0  0  0  0  0  0  0  0  0
    7.2995   -0.2234    0.0000 N   0  0  0  0  0  0  0  0  0  0  0  0
    8.0140    0.1891    0.0000 C   0  0  0  0  0  0  0  0  0  0  0  0
    7.2995   -1.0484    0.0000 C   0  0  0  0  0  0  0  0  0  0  0  0
    4.4416   -1.0484    0.0000 C   0  0  0  0  0  0  0  0  0  0  0  0
    5.1561   -1.4609    0.0000 C   0  0  0  0  0  0  0  0  0  0  0  0
    5.1561   -2.2859    0.0000 C   0  0  0  0  0  0  0  0  0  0  0  0
    4.4416   -2.6984    0.0000 C   0  0  0  0  0  0  0  0  0  0  0  0
    3.7272   -2.2859    0.0000 C   0  0  0  0  0  0  0  0  0  0  0  0
    3.7272   -1.4609    0.0000 C   0  0  0  0  0  0  0  0  0  0  0  0
    3.0127   -1.0484    0.0000 S   0  0  0  0  0  0  0  0  0  0  0  0
    3.0127    2.2516    0.0000 C   0  0  0  0  0  0  0  0  0  0  0  0
    3.0127    3.0766    0.0000 F   0  0  0  0  0  0  0  0  0  0  0  0
    3.8377    2.2516    0.0000 F   0  0  0  0  0  0  0  0  0  0  0  0
    2.1877    2.2516    0.0000 F   0  0  0  0  0  0  0  0  0  0  0  0
   -0.4125    0.0000    0.0000 Cl  0  5  0  0  0  0  0  0  0  0  0  0
  2  3  2  0  0  0  0
  3  4  1  0  0  0  0
  4  5  2  0  0  0  0
  5  6  1  0  0  0  0
  6  7  2  0  0  0  0
  2  7  1  0  0  0  0
  7  8  1  0  0  0  0
  8  9  1  0  0  0  0
  9 10  1  0  0  0  0
 10 11  1  0  0  0  0
 11 12  1  0  0  0  0
 12 13  1  0  0  0  0
 12 14  1  0  0  0  0
  8 15  1  0  0  0  0
 15 16  2  0  0  0  0
 16 17  1  0  0  0  0
 17 18  2  0  0  0  0
 18 19  1  0  0  0  0
 19 20  2  0  0  0  0
 15 20  1  0  0  0  0
 20 21  1  0  0  0  0
  6 21  1  0  0  0  0
  3 22  1  0  0  0  0
 22 23  1  0  0  0  0
 22 24  1  0  0  0  0
 22 25  1  0  0  0  0
M  CHG  2   1   1  26  -1
M  END
>  <Name>
Triflupromazine HCl

>  <CAS>
1098-60-8

>  <Formula>
C18H20ClF3N2S

>  <MolWt>
388.88 

>  <Bioactivity>
Triflupromazine (Vesprin) is an antipsychotic medication of the phenothiazine class. Among different effects of triflupromazine indication for use of this drug is severe emesis. Due to its potential side effects (triflupromazine has higher risk for side effects than many other antipsychotics) it is not gold standard in antiemetic therapy.

>  <Pathways>
Neuroscience

>  <Target>
Dopamine Receptor antagonist;AChR antagonist;5-HT receptor antagonist

>  <Receptor>
Dopamine receptor;Musciarinic AChR;5-HT receptor

>  <Reference>
1. Snyder S, et al. Arch Gen Psychiatry. 1974 Jul;31(1):58-61. 

$$$$
114-26-1
  Mrv1561503291623562D          

 15 15  0  0  0  0            999 V2000
    1.4289    0.8250    0.0000 C   0  0  0  0  0  0  0  0  0  0  0  0
    1.4289    0.0000    0.0000 C   0  0  0  0  0  0  0  0  0  0  0  0
    0.7145   -0.4125    0.0000 C   0  0  0  0  0  0  0  0  0  0  0  0
   -0.0000    0.0000    0.0000 C   0  0  0  0  0  0  0  0  0  0  0  0
   -0.0000    0.8250    0.0000 C   0  0  0  0  0  0  0  0  0  0  0  0
    0.7145    1.2375    0.0000 C   0  0  0  0  0  0  0  0  0  0  0  0
    0.7145    2.0625    0.0000 O   0  0  0  0  0  0  0  0  0  0  0  0
    1.4289    2.4750    0.0000 C   0  0  0  0  0  0  0  0  0  0  0  0
    1.4289    3.3000    0.0000 N   0  0  0  0  0  0  0  0  0  0  0  0
    2.1434    3.7125    0.0000 C   0  0  0  0  0  0  0  0  0  0  0  0
    2.1434    2.0625    0.0000 O   0  0  0  0  0  0  0  0  0  0  0  0
   -0.7145    1.2375    0.0000 O   0  0  0  0  0  0  0  0  0  0  0  0
   -1.4289    0.8250    0.0000 C   0  0  0  0  0  0  0  0  0  0  0  0
   -1.4289    0.0000    0.0000 C   0  0  0  0  0  0  0  0  0  0  0  0
   -2.1434    1.2375    0.0000 C   0  0  0  0  0  0  0  0  0  0  0  0
  1  2  2  0  0  0  0
  2  3  1  0  0  0  0
  3  4  2  0  0  0  0
  4  5  1  0  0  0  0
  5  6  2  0  0  0  0
  1  6  1  0  0  0  0
  6  7  1  0  0  0  0
  7  8  1  0  0  0  0
  8  9  1  0  0  0  0
  9 10  1  0  0  0  0
  8 11  2  0  0  0  0
  5 12  1  0  0  0  0
 12 13  1  0  0  0  0
 13 14  1  0  0  0  0
 13 15  1  0  0  0  0
M  END
>  <Name>
Propoxur

>  <CAS>
114-26-1

>  <Formula>
C11H15NO3

>  <MolWt>
209.24 

>  <Bioactivity>
Propoxur (Baygon) is a carbamate insecticide and was introduced in 1959. Propoxur is a non-systemic insecticide with a fast knockdown and long residual effect used against turf, forestry, and household pests and fleas. It is also used in pest control for other domestic animals, Anopheles mosquitoes, ants, gypsy moths, and other agricultural pests.

>  <Pathways>
Neuroscience

>  <Target>
ChE inhibitor

>  <Receptor>
ChE

>  <Reference>
1. Mehta KD, et al. Environ Toxicol. 2014 Jun; 29(6): 705-13. 

$$$$
404-86-4
  Mrv1561503291623562D          

 22 22  0  0  0  0            999 V2000
   -1.4289    0.8250    0.0000 C   0  0  0  0  0  0  0  0  0  0  0  0
   -1.4289    0.0000    0.0000 C   0  0  0  0  0  0  0  0  0  0  0  0
   -2.1434   -0.4125    0.0000 C   0  0  0  0  0  0  0  0  0  0  0  0
   -2.8579    0.0000    0.0000 C   0  0  0  0  0  0  0  0  0  0  0  0
   -2.8579    0.8250    0.0000 C   0  0  0  0  0  0  0  0  0  0  0  0
   -2.1434    1.2375    0.0000 C   0  0  0  0  0  0  0  0  0  0  0  0
   -2.1434    2.0625    0.0000 O   0  0  0  0  0  0  0  0  0  0  0  0
   -2.8579    2.4750    0.0000 C   0  0  0  0  0  0  0  0  0  0  0  0
   -3.5724    1.2375    0.0000 O   0  0  0  0  0  0  0  0  0  0  0  0
   -0.7145   -0.4125    0.0000 C   0  0  0  0  0  0  0  0  0  0  0  0
    0.0000    0.0000    0.0000 N   0  0  0  0  0  0  0  0  0  0  0  0
    0.7145   -0.4125    0.0000 C   0  0  0  0  0  0  0  0  0  0  0  0
    1.4289    0.0000    0.0000 C   0  0  0  0  0  0  0  0  0  0  0  0
    2.1434   -0.4125    0.0000 C   0  0  0  0  0  0  0  0  0  0  0  0
    2.8579    0.0000    0.0000 C   0  0  0  0  0  0  0  0  0  0  0  0
    3.5724   -0.4125    0.0000 C   0  0  0  0  0  0  0  0  0  0  0  0
    4.2868    0.0000    0.0000 C   0  0  0  0  0  0  0  0  0  0  0  0
    5.0013   -0.4125    0.0000 C   0  0  0  0  0  0  0  0  0  0  0  0
    5.7158    0.0000    0.0000 C   0  0  0  0  0  0  0  0  0  0  0  0
    6.4302   -0.4125    0.0000 C   0  0  0  0  0  0  0  0  0  0  0  0
    5.7158    0.8250    0.0000 C   0  0  0  0  0  0  0  0  0  0  0  0
    0.7145   -1.2375    0.0000 O   0  0  0  0  0  0  0  0  0  0  0  0
  1  2  2  0  0  0  0
  2  3  1  0  0  0  0
  3  4  2  0  0  0  0
  4  5  1  0  0  0  0
  5  6  2  0  0  0  0
  1  6  1  0  0  0  0
  6  7  1  0  0  0  0
  7  8  1  0  0  0  0
  5  9  1  0  0  0  0
  2 10  1  0  0  0  0
 10 11  1  0  0  0  0
 11 12  1  0  0  0  0
 12 13  1  0  0  0  0
 13 14  1  0  0  0  0
 14 15  1  0  0  0  0
 15 16  1  0  0  0  0
 16 17  1  0  0  0  0
 17 18  2  0  0  0  0
 18 19  1  0  0  0  0
 19 20  1  0  0  0  0
 19 21  1  0  0  0  0
 12 22  2  0  0  0  0
M  END
>  <Name>
Capsaicin

>  <CAS>
404-86-4

>  <Formula>
C18H27NO3

>  <MolWt>
305.41 

>  <Bioactivity>
Capsaicin is an active component of chili peppers. It selectively binds to TRPV1 which is a heat-activated calcium channel. Capsaicin causes the channel to open below 37 °C. This is why capsaicin is linked to the sensation of heat. 

>  <Pathways>
Membrane Transporter/Ion Channel

>  <Target>
TRP/TRPV Channel agonist

>  <Receptor>
TRPV1 receptor

>  <Reference>
1. Shaqura M, et al. Neuropharmacology. 2014 Oct;85:142-50. 

$$$$
4205-91-8
  Mrv1561503291623562D          

 16 15  0  0  0  0            999 V2000
    0.4125    0.0000    0.0000 H   0  3  0  0  0  0  0  0  0  0  0  0
    2.2982    0.5453    0.0000 C   0  0  0  0  0  0  0  0  0  0  0  0
    2.2982    1.3703    0.0000 C   0  0  0  0  0  0  0  0  0  0  0  0
    3.0127    1.7828    0.0000 C   0  0  0  0  0  0  0  0  0  0  0  0
    3.7272    1.3703    0.0000 C   0  0  0  0  0  0  0  0  0  0  0  0
    4.4416    1.7828    0.0000 Cl  0  0  0  0  0  0  0  0  0  0  0  0
    3.7272    0.5453    0.0000 C   0  0  0  0  0  0  0  0  0  0  0  0
    3.0127    0.1328    0.0000 C   0  0  0  0  0  0  0  0  0  0  0  0
    3.0127   -0.6922    0.0000 Cl  0  0  0  0  0  0  0  0  0  0  0  0
    4.4416    0.1328    0.0000 N   0  0  0  0  0  0  0  0  0  0  0  0
    4.4416   -0.6922    0.0000 C   0  0  0  0  0  0  0  0  0  0  0  0
    5.1091   -1.1771    0.0000 N   0  0  0  0  0  0  0  0  0  0  0  0
    4.8541   -1.9618    0.0000 C   0  0  0  0  0  0  0  0  0  0  0  0
    4.0291   -1.9618    0.0000 C   0  0  0  0  0  0  0  0  0  0  0  0
    3.7742   -1.1771    0.0000 N   0  0  0  0  0  0  0  0  0  0  0  0
   -0.4125    0.0000    0.0000 Cl  0  5  0  0  0  0  0  0  0  0  0  0
  2  3  2  0  0  0  0
  3  4  1  0  0  0  0
  4  5  2  0  0  0  0
  5  6  1  0  0  0  0
  5  7  1  0  0  0  0
  7  8  2  0  0  0  0
  2  8  1  0  0  0  0
  8  9  1  0  0  0  0
  7 10  1  0  0  0  0
 10 11  1  0  0  0  0
 11 12  2  0  0  0  0
 12 13  1  0  0  0  0
 13 14  1  0  0  0  0
 14 15  1  0  0  0  0
 11 15  1  0  0  0  0
M  CHG  2   1   1  16  -1
M  END
>  <Name>
Clonidine HCl

>  <CAS>
4205-91-8

>  <Formula>
C9H10Cl3N3

>  <MolWt>
266.55 

>  <Bioactivity>
Clonidine Hydrochloride is a centrally acting alpha-agonist hypotensive agent.

>  <Pathways>
GPCR/G Protein

>  <Target>
Adrenergic Receptor antagonist

>  <Receptor>
Adrenergic Receptor

>  <Reference>
1. Fairbanks CA, et al. J Pharmacol Exp Ther. 2002 Jan;300(1):282-90.

$$$$
52-68-6
  Mrv1561503291623562D          

 12 11  0  0  0  0            999 V2000
    1.5395   -1.2375    0.0000 C   0  0  0  0  0  0  0  0  0  0  0  0
    0.8250   -0.8250    0.0000 O   0  0  0  0  0  0  0  0  0  0  0  0
    0.8250    0.0000    0.0000 P   0  0  0  0  0  0  0  0  0  0  0  0
    0.8250    0.8250    0.0000 C   0  0  0  0  0  0  0  0  0  0  0  0
    0.1105    1.2375    0.0000 C   0  0  0  0  0  0  0  0  0  0  0  0
   -0.6039    1.6500    0.0000 Cl  0  0  0  0  0  0  0  0  0  0  0  0
    0.5230    1.9520    0.0000 Cl  0  0  0  0  0  0  0  0  0  0  0  0
   -0.3020    0.5230    0.0000 Cl  0  0  0  0  0  0  0  0  0  0  0  0
    1.5395    1.2375    0.0000 O   0  0  0  0  0  0  0  0  0  0  0  0
    1.6500   -0.0000    0.0000 O   0  0  0  0  0  0  0  0  0  0  0  0
    2.0625    0.7145    0.0000 C   0  0  0  0  0  0  0  0  0  0  0  0
    0.0000    0.0000    0.0000 O   0  0  0  0  0  0  0  0  0  0  0  0
  1  2  1  0  0  0  0
  2  3  1  0  0  0  0
  3  4  1  0  0  0  0
  4  5  1  0  0  0  0
  5  6  1  0  0  0  0
  5  7  1  0  0  0  0
  5  8  1  0  0  0  0
  4  9  1  0  0  0  0
  3 10  1  0  0  0  0
 10 11  1  0  0  0  0
  3 12  2  0  0  0  0
M  END
>  <Name>
Chlorophos

>  <CAS>
52-68-6

>  <Formula>
C4H8Cl3O4P

>  <MolWt>
257.44 

>  <Bioactivity>
Metrifonate (INN) or trichlorfon (USAN) is an irreversible organophosphate acetylcholinesterase inhibitor. It is a prodrug which is activated non-enzymatically into 2,2-dichlorovinyl dimethyl phosphate (DDVP).

>  <Pathways>
Neuroscience

>  <Target>
ChE inhibitor

>  <Receptor>
ChE

>  <Reference>
1. Mele T, Juri? DM.
Pharmacol Rep. 2014 Aug;66(4):618-23. 

$$$$
T2145
  Mrv1561503291623562D          

 73 76  0  0  0  0            999 V2000
    2.8538   -3.5517    0.0000 C   0  0  0  0  0  0  0  0  0  0  0  0
    2.4986   -2.8071    0.0000 C   0  0  0  0  0  0  0  0  0  0  0  0
    1.6762   -2.7424    0.0000 C   0  0  0  0  0  0  0  0  0  0  0  0
    1.3210   -1.9978    0.0000 C   0  0  0  0  0  0  0  0  0  0  0  0
    1.7882   -1.3179    0.0000 C   0  0  0  0  0  0  0  0  0  0  0  0
    1.4330   -0.5733    0.0000 C   0  0  0  0  0  0  0  0  0  0  0  0
    1.9116    0.1923    0.0000 C   0  0  0  0  0  0  0  0  0  0  0  0
    1.8038    1.0102    0.0000 C   0  0  0  0  0  0  0  0  0  0  0  0
    2.5485    1.3654    0.0000 C   0  0  0  0  0  0  0  0  0  0  0  0
    3.1164    0.7670    0.0000 C   0  0  0  0  0  0  0  0  0  0  0  0
    4.0125    0.6572    0.0000 C   0  0  0  0  0  0  0  0  0  0  0  0
    4.3677   -0.0874    0.0000 C   0  0  0  0  0  0  0  0  0  0  0  0
    5.1901   -0.1521    0.0000 C   0  0  0  0  0  0  0  0  0  0  0  0
    5.5453   -0.8968    0.0000 C   0  0  0  0  0  0  0  0  0  0  0  0
    6.3678   -0.9615    0.0000 C   0  0  0  0  0  0  0  0  0  0  0  0
    6.7230   -1.7061    0.0000 C   0  0  0  0  0  0  0  0  0  0  0  0
    7.5454   -1.7708    0.0000 C   0  0  0  0  0  0  0  0  0  0  0  0
    8.0127   -1.0909    0.0000 O   0  0  0  0  0  0  0  0  0  0  0  0
    7.9006   -2.5154    0.0000 C   0  0  0  0  0  0  0  0  0  0  0  0
    8.7231   -2.5801    0.0000 C   0  0  0  0  0  0  0  0  0  0  0  0
    9.0783   -3.3247    0.0000 C   0  0  0  0  0  0  0  0  0  0  0  0
    8.6110   -4.0047    0.0000 C   0  0  0  0  0  0  0  0  0  0  0  0
    8.9662   -4.7493    0.0000 C   0  0  0  0  0  0  0  0  0  0  0  0
    8.4990   -5.4292    0.0000 C   0  0  0  0  0  0  0  0  0  0  0  0
    8.8541   -6.1738    0.0000 O   0  0  0  0  0  0  0  0  0  0  0  0
    7.6765   -5.3645    0.0000 C   0  0  0  0  0  0  0  0  0  0  0  0
    7.3213   -4.6199    0.0000 C   0  0  0  0  0  0  0  0  0  0  0  0
    6.4988   -4.5552    0.0000 O   0  0  0  0  0  0  0  0  0  0  0  0
    6.1436   -3.8105    0.0000 C   0  0  0  0  0  0  0  0  0  0  0  0
    6.6109   -3.1306    0.0000 O   0  0  0  0  0  0  0  0  0  0  0  0
    5.3212   -3.7458    0.0000 C   0  0  0  0  0  0  0  0  0  0  0  0
    4.8539   -4.4258    0.0000 C   0  0  0  0  0  0  0  0  0  0  0  0
    4.0315   -4.3611    0.0000 C   0  0  0  0  0  0  0  0  0  0  0  0
    3.6763   -3.6164    0.0000 C   0  0  0  0  0  0  0  0  0  0  0  0
    4.0797   -2.5924    0.0000 C   0  0  0  0  0  0  0  0  0  0  0  0
    4.9660   -3.0012    0.0000 N   0  0  0  0  0  0  0  0  0  0  0  0
    4.1435   -2.9365    0.0000 C   0  0  0  0  0  0  0  0  0  0  0  0
    3.3659   -3.2119    0.0000 O   0  0  0  0  0  0  0  0  0  0  0  0
    3.7883   -2.1919    0.0000 C   0  0  0  0  0  0  0  0  0  0  0  0
    4.2556   -1.5120    0.0000 O   0  0  0  0  0  0  0  0  0  0  0  0
    2.9659   -2.1272    0.0000 C   0  0  0  0  0  0  0  0  0  0  0  0
    2.6107   -1.3826    0.0000 O   0  0  0  0  0  0  0  0  0  0  0  0
    3.3211   -2.8718    0.0000 O   0  0  0  0  0  0  0  0  0  0  0  0
    6.8540   -5.2998    0.0000 C   0  0  0  0  0  0  0  0  0  0  0  0
    6.0316   -5.2351    0.0000 C   0  0  0  0  0  0  0  0  0  0  0  0
    7.2092   -6.0444    0.0000 C   0  0  0  0  0  0  0  0  0  0  0  0
    6.7420   -6.7243    0.0000 C   0  0  0  0  0  0  0  0  0  0  0  0
    7.0972   -7.4690    0.0000 C   0  0  0  0  0  0  0  0  0  0  0  0
    6.6299   -8.1489    0.0000 C   0  0  0  0  0  0  0  0  0  0  0  0
    5.8074   -8.0842    0.0000 C   0  0  0  0  0  0  0  0  0  0  0  0
    5.4522   -7.3395    0.0000 C   0  0  0  0  0  0  0  0  0  0  0  0
    5.9195   -6.6596    0.0000 C   0  0  0  0  0  0  0  0  0  0  0  0
    4.6298   -7.2748    0.0000 O   0  0  0  0  0  0  0  0  0  0  0  0
    4.2746   -6.5302    0.0000 C   0  0  0  0  0  0  0  0  0  0  0  0
    5.3402   -8.7641    0.0000 O   0  0  0  0  0  0  0  0  0  0  0  0
    5.6954   -9.5087    0.0000 C   0  0  0  0  0  0  0  0  0  0  0  0
    6.5178   -9.5734    0.0000 O   0  0  0  0  0  0  0  0  0  0  0  0
    5.2281  -10.1886    0.0000 C   0  0  0  0  0  0  0  0  0  0  0  0
    4.5482   -9.7214    0.0000 C   0  0  0  0  0  0  0  0  0  0  0  0
    4.7609  -10.8686    0.0000 C   0  0  0  0  0  0  0  0  0  0  0  0
    5.1160  -11.6132    0.0000 O   0  0  0  0  0  0  0  0  0  0  0  0
    5.9080  -10.6559    0.0000 C   0  0  0  0  0  0  0  0  0  0  0  0
    5.8433  -11.4784    0.0000 O   0  0  0  0  0  0  0  0  0  0  0  0
    9.7887   -4.8140    0.0000 C   0  0  0  0  0  0  0  0  0  0  0  0
    9.9007   -3.3894    0.0000 C   0  0  0  0  0  0  0  0  0  0  0  0
    9.1903   -1.9002    0.0000 O   0  0  0  0  0  0  0  0  0  0  0  0
    8.3679   -1.8355    0.0000 O   0  0  0  0  0  0  0  0  0  0  0  0
    9.0713   -1.4044    0.0000 C   0  0  0  0  0  0  0  0  0  0  0  0
    6.2557   -2.3860    0.0000 C   0  0  0  0  0  0  0  0  0  0  0  0
    5.0781   -1.5767    0.0000 C   0  0  0  0  0  0  0  0  0  0  0  0
    1.0788    1.4038    0.0000 C   0  0  0  0  0  0  0  0  0  0  0  0
    1.1054    0.3674    0.0000 O   0  0  0  0  0  0  0  0  0  0  0  0
    0.5506   -0.2433    0.0000 C   0  0  0  0  0  0  0  0  0  0  0  0
  1  2  1  0  0  0  0
  2  3  1  0  0  0  0
  3  4  1  0  0  0  0
  4  5  1  0  0  0  0
  5  6  1  0  0  0  0
  6  7  1  0  0  0  0
  7  8  1  0  0  0  0
  8  9  2  0  0  0  0
  9 10  1  4  0  0  0
 10 11  2  0  0  0  0
 11 12  1  4  0  0  0
 12 13  2  0  0  0  0
 13 14  1  4  0  0  0
 14 15  1  0  0  0  0
 15 16  1  0  0  0  0
 16 17  1  0  0  0  0
 17 18  2  0  0  0  0
 17 19  1  0  0  0  0
 19 20  1  0  0  0  0
 20 21  1  0  0  0  0
 21 22  2  0  0  0  0
 22 23  1  4  0  0  0
 23 24  1  0  0  0  0
 24 25  2  0  0  0  0
 24 26  1  0  0  0  0
 26 27  1  0  0  0  0
 27 28  1  0  0  0  0
 28 29  1  0  0  0  0
 29 30  2  0  0  0  0
 29 31  1  0  0  0  0
 31 32  1  0  0  0  0
 32 33  1  0  0  0  0
 33 34  1  0  0  0  0
 34 35  1  0  0  0  0
 35 36  1  0  0  0  0
 31 36  1  0  0  0  0
 36 37  1  0  0  0  0
 37 38  2  0  0  0  0
 37 39  1  0  0  0  0
 39 40  2  0  0  0  0
 39 41  1  0  0  0  0
  2 41  1  0  0  0  0
 41 42  1  0  0  0  0
  5 42  1  0  0  0  0
 41 43  1  0  0  0  0
 27 44  1  0  0  0  0
 44 45  1  0  0  0  0
 44 46  1  0  0  0  0
 46 47  1  0  0  0  0
 47 48  1  0  0  0  0
 48 49  1  0  0  0  0
 49 50  1  0  0  0  0
 50 51  1  0  0  0  0
 51 52  1  0  0  0  0
 47 52  1  0  0  0  0
 51 53  1  0  0  0  0
 53 54  1  0  0  0  0
 50 55  1  0  0  0  0
 55 56  1  0  0  0  0
 56 57  2  0  0  0  0
 56 58  1  0  0  0  0
 58 59  1  0  0  0  0
 58 60  1  0  0  0  0
 60 61  1  0  0  0  0
 58 62  1  0  0  0  0
 62 63  1  0  0  0  0
 23 64  1  0  0  0  0
 21 65  1  0  0  0  0
 20 66  1  0  0  0  0
 19 67  1  0  0  0  0
 67 68  1  0  0  0  0
 16 69  1  0  0  0  0
 14 70  1  0  0  0  0
  8 71  1  0  0  0  0
  7 72  1  0  0  0  0
 72 73  1  0  0  0  0
M  END
>  <Name>
Temsirolimus (CCI-779, NSC 683864)

>  <CAS>
162635-04-3

>  <Formula>
C56H87NO16

>  <MolWt>
1030.29 

>  <Bioactivity>
Temsirolimus is an intravenous drug for the treatment of renal cell carcinoma (RCC), developed by Wyeth Pharmaceuticals and approved by the FDA in late May 2007, and was also approved by the European Medicines Agency (EMEA) on November 2007. It is a derivative of sirolimus and is sold as Torisel. 

>  <Pathways>
PI3K/Akt/mTOR Signaling

>  <Target>
mTOR inhibitor

>  <Receptor>
mTOR

>  <Reference>
1. Shor B, et al. Cancer Res, 2008, 68(8), 2934-2943.

$$$$
T0977
  Mrv1561503291623562D          

 25 28  0  0  1  0            999 V2000
    2.3387    0.7029    0.0000 C   0  0  2  0  0  0  0  0  0  0  0  0
    2.8705    0.0722    0.0000 C   0  0  2  0  0  0  0  0  0  0  0  0
    3.6826    0.2174    0.0000 C   0  0  1  0  0  0  0  0  0  0  0  0
    3.9629    0.9934    0.0000 C   0  0  2  0  0  0  0  0  0  0  0  0
    4.7875    0.9666    0.0000 C   0  0  1  0  0  0  0  0  0  0  0  0
    5.2939    1.6179    0.0000 C   0  0  0  0  0  0  0  0  0  0  0  0
    6.1111    1.5050    0.0000 C   0  0  0  0  0  0  0  0  0  0  0  0
    4.9830    2.3821    0.0000 O   0  0  0  0  0  0  0  0  0  0  0  0
    5.0168    0.1741    0.0000 C   0  0  0  0  0  0  0  0  0  0  0  0
    4.3340   -0.2889    0.0000 C   0  0  0  0  0  0  0  0  0  0  0  0
    4.3228    1.7357    0.0000 C   0  0  0  0  0  0  0  0  0  0  0  0
    3.4311    1.6241    0.0000 C   0  0  0  0  0  0  0  0  0  0  0  0
    2.6190    1.4789    0.0000 C   0  0  2  0  0  0  0  0  0  0  0  0
    2.0872    2.1096    0.0000 O   0  0  0  0  0  0  0  0  0  0  0  0
    2.5902   -0.7037    0.0000 C   0  0  0  0  0  0  0  0  0  0  0  0
    1.7781   -0.8489    0.0000 C   0  0  2  0  0  0  0  0  0  0  0  0
    1.4978   -1.6248    0.0000 C   0  0  0  0  0  0  0  0  0  0  0  0
    1.2463   -0.2182    0.0000 C   0  0  0  0  0  0  0  0  0  0  0  0
    0.4342   -0.3634    0.0000 C   0  0  0  0  0  0  0  0  0  0  0  0
   -0.0976    0.2673    0.0000 C   0  0  0  0  0  0  0  0  0  0  0  0
   -0.9098    0.1221    0.0000 O   0  0  0  0  0  0  0  0  0  0  0  0
    0.1827    1.0432    0.0000 C   0  0  0  0  0  0  0  0  0  0  0  0
    0.9948    1.1884    0.0000 C   0  0  0  0  0  0  0  0  0  0  0  0
    1.5266    0.5577    0.0000 C   0  0  2  0  0  0  0  0  0  0  0  0
    1.8069    1.3336    0.0000 C   0  0  0  0  0  0  0  0  0  0  0  0
  1  2  1  0  0  0  0
  2  3  1  0  0  0  0
  3  4  1  0  0  0  0
  4  5  1  0  0  0  0
  5  6  1  1  0  0  0
  6  7  1  0  0  0  0
  6  8  2  0  0  0  0
  5  9  1  0  0  0  0
  9 10  1  0  0  0  0
  3 10  1  1  0  0  0
  4 11  1  1  0  0  0
  4 12  1  0  0  0  0
 12 13  1  0  0  0  0
  1 13  1  0  0  0  0
 13 14  1  1  0  0  0
  2 15  1  6  0  0  0
 15 16  1  0  0  0  0
 16 17  1  6  0  0  0
 16 18  1  0  0  0  0
 18 19  2  0  0  0  0
 19 20  1  0  0  0  0
 20 21  2  0  0  0  0
 20 22  1  0  0  0  0
 22 23  1  0  0  0  0
 23 24  1  0  0  0  0
  1 24  1  1  0  0  0
 18 24  1  0  0  0  0
 24 25  1  1  0  0  0
M  END
>  <Name>
Medrysone

>  <CAS>
2668-66-8

>  <Formula>
C22H32O3

>  <MolWt>
344.50 

>  <Bioactivity>
Medrysone is a corticosteroid used in ophthalmology. 

>  <Pathways>
Endocrinology/ Hormones

>  <Target>
Corticosteroid-binding globulin;Glucocorticoid Receptor agonist

>  <Receptor>
Corticosteroid-binding globulin;Glucocorticoid receptor

>  <Reference>
1. Southren AL, et al. Invest Ophthalmol Vis Sci. 1983 Feb;24(2):147-52.

$$$$
2921-88-2
  Mrv1561503291623562D          

 18 18  0  0  0  0            999 V2000
    1.4289    0.8250    0.0000 C   0  0  0  0  0  0  0  0  0  0  0  0
    1.4289    0.0000    0.0000 C   0  0  0  0  0  0  0  0  0  0  0  0
    2.1434   -0.4125    0.0000 Cl  0  0  0  0  0  0  0  0  0  0  0  0
    0.7145   -0.4125    0.0000 C   0  0  0  0  0  0  0  0  0  0  0  0
   -0.0000    0.0000    0.0000 N   0  0  0  0  0  0  0  0  0  0  0  0
   -0.0000    0.8250    0.0000 C   0  0  0  0  0  0  0  0  0  0  0  0
    0.7145    1.2375    0.0000 C   0  0  0  0  0  0  0  0  0  0  0  0
    0.7145    2.0625    0.0000 Cl  0  0  0  0  0  0  0  0  0  0  0  0
   -0.7145    1.2375    0.0000 O   0  0  0  0  0  0  0  0  0  0  0  0
   -1.4289    0.8250    0.0000 P   0  0  0  0  0  0  0  0  0  0  0  0
   -2.1434    0.4125    0.0000 O   0  0  0  0  0  0  0  0  0  0  0  0
   -2.8579    0.8250    0.0000 C   0  0  0  0  0  0  0  0  0  0  0  0
   -3.5724    0.4125    0.0000 C   0  0  0  0  0  0  0  0  0  0  0  0
   -1.8414    1.5395    0.0000 O   0  0  0  0  0  0  0  0  0  0  0  0
   -2.6664    1.5395    0.0000 C   0  0  0  0  0  0  0  0  0  0  0  0
   -3.0789    2.2539    0.0000 C   0  0  0  0  0  0  0  0  0  0  0  0
   -1.0164    0.1105    0.0000 S   0  0  0  0  0  0  0  0  0  0  0  0
    0.7145   -1.2375    0.0000 Cl  0  0  0  0  0  0  0  0  0  0  0  0
  1  2  2  0  0  0  0
  2  3  1  0  0  0  0
  2  4  1  0  0  0  0
  4  5  2  0  0  0  0
  5  6  1  0  0  0  0
  6  7  2  0  0  0  0
  1  7  1  0  0  0  0
  7  8  1  0  0  0  0
  6  9  1  0  0  0  0
  9 10  1  0  0  0  0
 10 11  1  0  0  0  0
 11 12  1  0  0  0  0
 12 13  1  0  0  0  0
 10 14  1  0  0  0  0
 14 15  1  0  0  0  0
 15 16  1  0  0  0  0
 10 17  2  0  0  0  0
  4 18  1  0  0  0  0
M  END
>  <Name>
Clorpyrifos

>  <CAS>
2921-88-2

>  <Formula>
C9H11Cl3NO3PS

>  <MolWt>
350.59 

>  <Bioactivity>
An organothiophosphate cholinesterase inhibitor that is used as an insecticide and as an acaricide.


>  <Pathways>
Neuroscience

>  <Target>
ChE inhibitor

>  <Receptor>
ChE

>  <Reference>
1. Barman DN, et al. Ecotoxicol Environ Saf. 2014 Oct;108:135-41.

$$$$
333-41-5
  Mrv1561503291623562D          

 19 19  0  0  0  0            999 V2000
    1.4289    0.8250    0.0000 C   0  0  0  0  0  0  0  0  0  0  0  0
    1.4289    0.0000    0.0000 C   0  0  0  0  0  0  0  0  0  0  0  0
    2.1434   -0.4125    0.0000 C   0  0  0  0  0  0  0  0  0  0  0  0
    0.7145   -0.4125    0.0000 N   0  0  0  0  0  0  0  0  0  0  0  0
   -0.0000    0.0000    0.0000 C   0  0  0  0  0  0  0  0  0  0  0  0
   -0.0000    0.8250    0.0000 N   0  0  0  0  0  0  0  0  0  0  0  0
    0.7145    1.2375    0.0000 C   0  0  0  0  0  0  0  0  0  0  0  0
    0.7145    2.0625    0.0000 O   0  0  0  0  0  0  0  0  0  0  0  0
    1.4289    2.4750    0.0000 P   0  0  0  0  0  0  0  0  0  0  0  0
    2.1434    2.8875    0.0000 O   0  0  0  0  0  0  0  0  0  0  0  0
    2.1434    3.7125    0.0000 C   0  0  0  0  0  0  0  0  0  0  0  0
    2.8579    4.1250    0.0000 C   0  0  0  0  0  0  0  0  0  0  0  0
    1.0164    3.1895    0.0000 O   0  0  0  0  0  0  0  0  0  0  0  0
    1.4289    3.9039    0.0000 C   0  0  0  0  0  0  0  0  0  0  0  0
    1.0164    4.6184    0.0000 C   0  0  0  0  0  0  0  0  0  0  0  0
    1.8414    1.7605    0.0000 S   0  0  0  0  0  0  0  0  0  0  0  0
   -0.7145   -0.4125    0.0000 C   0  0  0  0  0  0  0  0  0  0  0  0
   -0.7145   -1.2375    0.0000 C   0  0  0  0  0  0  0  0  0  0  0  0
   -1.4289    0.0000    0.0000 C   0  0  0  0  0  0  0  0  0  0  0  0
  1  2  2  0  0  0  0
  2  3  1  0  0  0  0
  2  4  1  0  0  0  0
  4  5  2  0  0  0  0
  5  6  1  0  0  0  0
  6  7  2  0  0  0  0
  1  7  1  0  0  0  0
  7  8  1  0  0  0  0
  8  9  1  0  0  0  0
  9 10  1  0  0  0  0
 10 11  1  0  0  0  0
 11 12  1  0  0  0  0
  9 13  1  0  0  0  0
 13 14  1  0  0  0  0
 14 15  1  0  0  0  0
  9 16  2  0  0  0  0
  5 17  1  0  0  0  0
 17 18  1  0  0  0  0
 17 19  1  0  0  0  0
M  END
>  <Name>
Diazinon

>  <CAS>
333-41-5

>  <Formula>
C12H21N2O3PS

>  <MolWt>
304.35 

>  <Bioactivity>
A cholinesterase inhibitor that is used as an organothiophosphorus insecticide.


>  <Pathways>
Neuroscience

>  <Target>
ChE inhibitor

>  <Receptor>
ChE

>  <Reference>
1. Katuli KK, et al. Chemosphere. 2014 Aug;108:396-404. 

$$$$
T1058
  Mrv1561503291623562D          

 13 14  0  0  0  0            999 V2000
    2.6459    0.4125    0.0000 Pt  0  2  0  0  0  0  0  0  0  0  0  0
    2.2334    1.1270    0.0000 O   0  0  0  0  0  0  0  0  0  0  0  0
    1.4084    1.1270    0.0000 C   0  0  0  0  0  0  0  0  0  0  0  0
    0.9959    1.8414    0.0000 O   0  0  0  0  0  0  0  0  0  0  0  0
    0.9959    0.4125    0.0000 C   0  0  0  0  0  0  0  0  0  0  0  0
    0.4125   -0.1709    0.0000 C   0  0  0  0  0  0  0  0  0  0  0  0
   -0.1709    0.4125    0.0000 C   0  0  0  0  0  0  0  0  0  0  0  0
    0.4125    0.9959    0.0000 C   0  0  0  0  0  0  0  0  0  0  0  0
    1.4084   -0.3020    0.0000 C   0  0  0  0  0  0  0  0  0  0  0  0
    2.2334   -0.3020    0.0000 O   0  0  0  0  0  0  0  0  0  0  0  0
    0.9959   -1.0164    0.0000 O   0  0  0  0  0  0  0  0  0  0  0  0
    3.6171    0.9289    0.0000 N   0  0  0  0  0  0  0  0  0  0  0  0
    3.6171   -0.1039    0.0000 N   0  0  0  0  0  0  0  0  0  0  0  0
  2  1  8  0  0  0  0
  2  3  1  0  0  0  0
  3  4  2  0  0  0  0
  3  5  1  0  0  0  0
  5  6  1  0  0  0  0
  6  7  1  0  0  0  0
  7  8  1  0  0  0  0
  5  8  1  0  0  0  0
  5  9  1  0  0  0  0
  9 10  1  0  0  0  0
 10  1  8  0  0  0  0
  9 11  2  0  0  0  0
 12  1  8  0  0  0  0
 13  1  8  0  0  0  0
M  CHG  1   1   2
M  STY  4   1 DAT   2 DAT   3 DAT   4 DAT
M  SAL   1  2   2   1
M  SDT   1 MRV_COORDINATE_BOND_TYPE                              
M  SDD   1     0.0000    0.0000    DR    ALL  0       0  
M  SED   1 1
M  SAL   2  2  10   1
M  SDT   2 MRV_COORDINATE_BOND_TYPE                              
M  SDD   2     0.0000    0.0000    DR    ALL  0       0  
M  SED   2 11
M  SAL   3  2  12   1
M  SDT   3 MRV_COORDINATE_BOND_TYPE                              
M  SDD   3     0.0000    0.0000    DR    ALL  0       0  
M  SED   3 13
M  SAL   4  2  13   1
M  SDT   4 MRV_COORDINATE_BOND_TYPE                              
M  SDD   4     0.0000    0.0000    DR    ALL  0       0  
M  SED   4 14
M  END
>  <Name>
Carboplatin

>  <CAS>
41575-94-4

>  <Formula>
C6H12N2O4Pt

>  <MolWt>
371.25 

>  <Bioactivity>
An organoplatinum compound that possesses antineoplastic activity.


>  <Pathways>
DNA Damage/DNA Repair

>  <Target>
DNA Synthesis inhibitor

>  <Receptor>
DNA alkylation

>  <Reference>
1. Sharma S, et al. J Mol Biol. 2007 Aug 23;.

$$$$
T1070
  Mrv1561503291623562D          

 31 32  0  0  1  0            999 V2000
   -1.2757   -3.0955    0.0000 C   0  0  0  0  0  0  0  0  0  0  0  0
   -1.4683   -3.8977    0.0000 S   0  0  0  0  0  0  0  0  0  0  0  0
   -2.2593   -4.1320    0.0000 C   0  0  0  0  0  0  0  0  0  0  0  0
   -2.8578   -3.5641    0.0000 C   0  0  0  0  0  0  0  0  0  0  0  0
   -2.6652   -2.7619    0.0000 C   0  0  0  0  0  0  0  0  0  0  0  0
   -1.8741   -2.5276    0.0000 N   0  0  0  0  0  0  0  0  0  0  0  0
   -1.3062   -1.9292    0.0000 C   0  0  0  0  0  0  0  0  0  0  0  0
   -1.3278   -1.1045    0.0000 O   0  0  0  0  0  0  0  0  0  0  0  0
   -0.7078   -2.4971    0.0000 C   0  0  0  0  0  0  0  0  0  0  0  0
   -0.0159   -2.0477    0.0000 O   0  0  0  0  0  0  0  0  0  0  0  0
   -0.0591   -1.2239    0.0000 C   0  0  0  0  0  0  0  0  0  0  0  0
    0.0067   -2.9096    0.0000 N   0  0  0  0  0  0  0  0  0  0  0  0
    0.7211   -2.4971    0.0000 C   0  0  0  0  0  0  0  0  0  0  0  0
    0.7211   -1.6721    0.0000 O   0  0  0  0  0  0  0  0  0  0  0  0
    1.4356   -2.9096    0.0000 C   0  0  0  0  0  0  0  0  0  0  0  0
    2.1501   -2.4971    0.0000 S   0  0  0  0  0  0  0  0  0  0  0  0
    2.8645   -2.9096    0.0000 C   0  0  0  0  0  0  0  0  0  0  0  0
    3.5790   -2.4971    0.0000 C   0  0  0  0  0  0  0  0  0  0  0  0
    4.2935   -2.0846    0.0000 N   0  0  0  0  0  0  0  0  0  0  0  0
   -3.2636   -2.1940    0.0000 C   0  0  0  0  0  0  0  0  0  0  0  0
   -3.0710   -1.3918    0.0000 O   0  5  0  0  0  0  0  0  0  0  0  0
   -4.0546   -2.4283    0.0000 O   0  0  0  0  0  0  0  0  0  0  0  0
   -3.6488   -3.7984    0.0000 C   0  0  0  0  0  0  0  0  0  0  0  0
   -3.8414   -4.6006    0.0000 S   0  0  0  0  0  0  0  0  0  0  0  0
   -4.6324   -4.8350    0.0000 C   0  0  0  0  0  0  0  0  0  0  0  0
   -4.9078   -5.6126    0.0000 N   0  0  0  0  0  0  0  0  0  0  0  0
   -5.7325   -5.5910    0.0000 N   0  0  0  0  0  0  0  0  0  0  0  0
   -5.9668   -4.8000    0.0000 N   0  0  0  0  0  0  0  0  0  0  0  0
   -5.2869   -4.3327    0.0000 N   0  0  0  0  0  0  0  0  0  0  0  0
   -5.2653   -3.5080    0.0000 C   0  0  0  0  0  0  0  0  0  0  0  0
   -2.8784   -0.5896    0.0000 Na  0  3  0  0  0  0  0  0  0  0  0  0
  1  2  1  0  0  0  0
  2  3  1  0  0  0  0
  3  4  1  0  0  0  0
  4  5  2  0  0  0  0
  5  6  1  0  0  0  0
  1  6  1  0  0  0  0
  6  7  1  0  0  0  0
  7  8  2  0  0  0  0
  7  9  1  0  0  0  0
  1  9  1  0  0  0  0
  9 10  1  0  0  0  0
 10 11  1  0  0  0  0
  9 12  1  0  0  0  0
 12 13  1  0  0  0  0
 13 14  2  0  0  0  0
 13 15  1  0  0  0  0
 15 16  1  0  0  0  0
 16 17  1  0  0  0  0
 17 18  1  0  0  0  0
 18 19  3  0  0  0  0
  5 20  1  0  0  0  0
 20 21  1  0  0  0  0
 20 22  2  0  0  0  0
  4 23  1  0  0  0  0
 23 24  1  0  0  0  0
 24 25  1  0  0  0  0
 25 26  2  0  0  0  0
 26 27  1  0  0  0  0
 27 28  2  0  0  0  0
 28 29  1  0  0  0  0
 25 29  1  0  0  0  0
 29 30  1  0  0  0  0
M  CHG  2  21  -1  31   1
M  END
>  <Name>
Cefmetazole sodium

>  <CAS>
56796-39-5

>  <Formula>
C15H16N7NaO5S3

>  <MolWt>
493.52 

>  <Bioactivity>
A semisynthetic cephamycin antibiotic with a broad spectrum of activity against both gram-positive and gram-negative microorganisms. It has a high rate of efficacy in many types of infection and to date no severe side effects have been noted.


>  <Pathways>
Microbiology & Virology

>  <Target>
Antibacterial

>  <Receptor>
Others

>  <Reference>
1. Inagaki K, et al. J Parenter Sci Technol. 1993 Jan-Feb;47(1):35-9.

$$$$
T1127
  Mrv1561503291623562D          

 36 39  0  0  1  0            999 V2000
    0.0084   -4.0871    0.0000 C   0  0  2  0  0  0  0  0  0  0  0  0
   -0.4695   -3.4146    0.0000 C   0  0  2  0  0  0  0  0  0  0  0  0
   -1.2567   -3.6613    0.0000 C   0  0  2  0  0  0  0  0  0  0  0  0
   -1.8640   -3.1029    0.0000 C   0  0  1  0  0  0  0  0  0  0  0  0
   -1.6840   -2.2978    0.0000 C   0  0  2  0  0  0  0  0  0  0  0  0
   -2.2913   -1.7394    0.0000 C   0  0  2  0  0  0  0  0  0  0  0  0
   -3.0786   -1.9861    0.0000 C   0  0  0  0  0  0  0  0  0  0  0  0
   -3.6858   -1.4276    0.0000 C   0  0  0  0  0  0  0  0  0  0  0  0
   -3.5059   -0.6225    0.0000 C   0  0  0  0  0  0  0  0  0  0  0  0
   -4.1131   -0.0641    0.0000 O   0  0  0  0  0  0  0  0  0  0  0  0
   -2.7186   -0.3758    0.0000 C   0  0  0  0  0  0  0  0  0  0  0  0
   -2.1113   -0.9342    0.0000 C   0  0  0  0  0  0  0  0  0  0  0  0
   -3.2585   -2.7912    0.0000 C   0  0  0  0  0  0  0  0  0  0  0  0
   -2.6512   -3.3496    0.0000 C   0  0  0  0  0  0  0  0  0  0  0  0
   -1.5041   -1.4926    0.0000 C   0  0  0  0  0  0  0  0  0  0  0  0
   -1.0652   -1.7522    0.0000 Cl  0  0  0  0  0  0  0  0  0  0  0  0
   -0.8968   -2.0511    0.0000 C   0  0  2  0  0  0  0  0  0  0  0  0
   -0.2895   -2.6095    0.0000 C   0  0  0  0  0  0  0  0  0  0  0  0
   -0.7168   -1.2459    0.0000 O   0  0  0  0  0  0  0  0  0  0  0  0
   -1.2654   -4.4863    0.0000 C   0  0  0  0  0  0  0  0  0  0  0  0
   -0.4834   -4.7494    0.0000 C   0  0  2  0  0  0  0  0  0  0  0  0
   -0.2367   -5.5367    0.0000 C   0  0  0  0  0  0  0  0  0  0  0  0
    0.3393   -3.2516    0.0000 C   0  0  0  0  0  0  0  0  0  0  0  0
    0.7229   -4.4996    0.0000 C   0  0  0  0  0  0  0  0  0  0  0  0
    1.4374   -4.0871    0.0000 C   0  0  0  0  0  0  0  0  0  0  0  0
    2.1519   -4.4996    0.0000 O   0  0  0  0  0  0  0  0  0  0  0  0
    2.8663   -4.0871    0.0000 C   0  0  0  0  0  0  0  0  0  0  0  0
    3.5808   -4.4996    0.0000 C   0  0  0  0  0  0  0  0  0  0  0  0
    4.2953   -4.0871    0.0000 C   0  0  0  0  0  0  0  0  0  0  0  0
    2.8663   -3.2621    0.0000 O   0  0  0  0  0  0  0  0  0  0  0  0
    0.7229   -5.3246    0.0000 O   0  0  0  0  0  0  0  0  0  0  0  0
    0.7314   -3.6897    0.0000 O   0  0  0  0  0  0  0  0  0  0  0  0
    0.7487   -2.8648    0.0000 C   0  0  0  0  0  0  0  0  0  0  0  0
    1.4716   -2.4674    0.0000 C   0  0  0  0  0  0  0  0  0  0  0  0
    1.4889   -1.6426    0.0000 C   0  0  0  0  0  0  0  0  0  0  0  0
    0.0430   -2.4375    0.0000 O   0  0  0  0  0  0  0  0  0  0  0  0
  1  2  1  0  0  0  0
  2  3  1  0  0  0  0
  3  4  1  0  0  0  0
  4  5  1  0  0  0  0
  5  6  1  0  0  0  0
  6  7  1  0  0  0  0
  7  8  2  0  0  0  0
  8  9  1  0  0  0  0
  9 10  2  0  0  0  0
  9 11  1  0  0  0  0
 11 12  2  0  0  0  0
  6 12  1  0  0  0  0
  7 13  1  0  0  0  0
 13 14  1  0  0  0  0
  4 14  1  6  0  0  0
  6 15  1  1  0  0  0
  5 16  1  6  0  0  0
  5 17  1  0  0  0  0
 17 18  1  0  0  0  0
  2 18  1  0  0  0  0
 17 19  1  1  0  0  0
  3 20  1  1  0  0  0
 20 21  1  0  0  0  0
  1 21  1  0  0  0  0
 21 22  1  1  0  0  0
  2 23  1  1  0  0  0
  1 24  1  1  0  0  0
 24 25  1  0  0  0  0
 25 26  1  0  0  0  0
 26 27  1  0  0  0  0
 27 28  1  0  0  0  0
 28 29  1  0  0  0  0
 27 30  2  0  0  0  0
 24 31  2  0  0  0  0
  1 32  1  6  0  0  0
 32 33  1  0  0  0  0
 33 34  1  0  0  0  0
 34 35  1  0  0  0  0
 33 36  2  0  0  0  0
M  END
>  <Name>
Beclomethasone dipropionate

>  <CAS>
5534-09-8

>  <Formula>
C28H37ClO7

>  <MolWt>
521.04 

>  <Bioactivity>
An anti-inflammatory, synthetic glucocorticoid. It is used topically as an anti-inflammatory agent and in aerosol form for the treatment of ASTHMA.


>  <Pathways>
Endocrinology/ Hormones

>  <Target>
Glucocorticoid Receptor agonist

>  <Receptor>
Glucocorticoid receptor

>  <Reference>
1. Saklatvala J. Arthritis Res. 2002;4(3):146-50.

$$$$
22457-89-2
  Mrv1561503291623562D          

 31 32  0  0  0  0            999 V2000
   -2.8579   -2.4750    0.0000 C   0  0  0  0  0  0  0  0  0  0  0  0
   -3.5724   -2.8875    0.0000 C   0  0  0  0  0  0  0  0  0  0  0  0
   -3.5724   -3.7125    0.0000 C   0  0  0  0  0  0  0  0  0  0  0  0
   -2.8579   -4.1250    0.0000 N   0  0  0  0  0  0  0  0  0  0  0  0
   -2.8579   -4.9500    0.0000 C   0  0  0  0  0  0  0  0  0  0  0  0
   -2.1434   -5.3625    0.0000 C   0  0  0  0  0  0  0  0  0  0  0  0
   -1.4289   -4.9500    0.0000 S   0  0  0  0  0  0  0  0  0  0  0  0
   -0.7145   -5.3625    0.0000 C   0  0  0  0  0  0  0  0  0  0  0  0
   -0.7145   -6.1875    0.0000 O   0  0  0  0  0  0  0  0  0  0  0  0
   -0.0000   -4.9500    0.0000 C   0  0  0  0  0  0  0  0  0  0  0  0
   -0.0000   -4.1250    0.0000 C   0  0  0  0  0  0  0  0  0  0  0  0
    0.7145   -3.7125    0.0000 C   0  0  0  0  0  0  0  0  0  0  0  0
    1.4289   -4.1250    0.0000 C   0  0  0  0  0  0  0  0  0  0  0  0
    1.4289   -4.9500    0.0000 C   0  0  0  0  0  0  0  0  0  0  0  0
    0.7145   -5.3625    0.0000 C   0  0  0  0  0  0  0  0  0  0  0  0
   -2.1434   -6.1875    0.0000 C   0  0  0  0  0  0  0  0  0  0  0  0
   -1.4289   -6.6000    0.0000 C   0  0  0  0  0  0  0  0  0  0  0  0
   -1.4289   -7.4250    0.0000 O   0  0  0  0  0  0  0  0  0  0  0  0
   -2.1434   -7.8375    0.0000 P   0  0  0  0  0  0  0  0  0  0  0  0
   -2.5559   -7.1230    0.0000 O   0  0  0  0  0  0  0  0  0  0  0  0
   -1.7309   -8.5520    0.0000 O   0  0  0  0  0  0  0  0  0  0  0  0
   -2.8579   -8.2500    0.0000 O   0  0  0  0  0  0  0  0  0  0  0  0
   -3.5724   -5.3625    0.0000 C   0  0  0  0  0  0  0  0  0  0  0  0
   -2.1434   -3.7125    0.0000 C   0  0  0  0  0  0  0  0  0  0  0  0
   -1.4289   -4.1250    0.0000 O   0  0  0  0  0  0  0  0  0  0  0  0
   -4.2868   -2.4750    0.0000 C   0  0  0  0  0  0  0  0  0  0  0  0
   -4.2868   -1.6500    0.0000 N   0  0  0  0  0  0  0  0  0  0  0  0
   -3.5724   -1.2375    0.0000 C   0  0  0  0  0  0  0  0  0  0  0  0
   -2.8579   -1.6500    0.0000 N   0  0  0  0  0  0  0  0  0  0  0  0
   -3.5724   -0.4125    0.0000 C   0  0  0  0  0  0  0  0  0  0  0  0
   -5.0013   -2.8875    0.0000 N   0  0  0  0  0  0  0  0  0  0  0  0
  1  2  2  0  0  0  0
  2  3  1  0  0  0  0
  3  4  1  0  0  0  0
  4  5  1  0  0  0  0
  5  6  2  0  0  0  0
  6  7  1  0  0  0  0
  7  8  1  0  0  0  0
  8  9  2  0  0  0  0
  8 10  1  0  0  0  0
 10 11  2  0  0  0  0
 11 12  1  0  0  0  0
 12 13  2  0  0  0  0
 13 14  1  0  0  0  0
 14 15  2  0  0  0  0
 10 15  1  0  0  0  0
  6 16  1  0  0  0  0
 16 17  1  0  0  0  0
 17 18  1  0  0  0  0
 18 19  1  0  0  0  0
 19 20  2  0  0  0  0
 19 21  1  0  0  0  0
 19 22  1  0  0  0  0
  5 23  1  0  0  0  0
  4 24  1  0  0  0  0
 24 25  2  0  0  0  0
  2 26  1  0  0  0  0
 26 27  2  0  0  0  0
 27 28  1  0  0  0  0
 28 29  2  0  0  0  0
  1 29  1  0  0  0  0
 28 30  1  0  0  0  0
 26 31  1  0  0  0  0
M  END
>  <Name>
Benfotiamine

>  <CAS>
22457-89-2

>  <Formula>
C19H23N4O6PS

>  <MolWt>
466.46 

>  <Bioactivity>
Benfotiamine, the lipid-soluble thiamine derivative used as a treatment for diabetic neuropathy, can inhibit three major pathways(the hexosamine pathway, the advanced glycation end product (AGE) formation pathway and the diacylglycerol (DAG)?protein kinase C (PKC) pathway?of hyperglycemic damage and prevent experimental diabetic retinopathy. Benfotiamine is a synthetic S-acyl derivative of thiamine (vitamin B1) for treating sciatica and other painful nerve conditions. More effective at increasing thiamin levels in blood and tissues than water-soluble salts like the previous vitamin B1.

>  <Pathways>
Others

>  <Target>
Others

>  <Receptor>
Others

>  <Reference>
1. Bozic I, et al. PLoS One. 2015 Feb 19;10(2):e0118372.

$$$$
129-46-4
  Mrv1561503291623562D          

 92 93  0  0  0  0            999 V2000
   -4.2868  -12.3750    0.0000 C   0  0  0  0  0  0  0  0  0  0  0  0
   -5.0013  -12.7875    0.0000 C   0  0  0  0  0  0  0  0  0  0  0  0
   -5.7158  -12.3750    0.0000 S   0  0  0  0  0  0  0  0  0  0  0  0
   -6.4302  -11.9625    0.0000 O   0  5  0  0  0  0  0  0  0  0  0  0
   -5.3033  -11.6605    0.0000 O   0  0  0  0  0  0  0  0  0  0  0  0
   -6.1283  -13.0895    0.0000 O   0  0  0  0  0  0  0  0  0  0  0  0
   -5.0013  -13.6125    0.0000 C   0  0  0  0  0  0  0  0  0  0  0  0
   -4.2868  -14.0250    0.0000 C   0  0  0  0  0  0  0  0  0  0  0  0
   -4.2868  -14.8500    0.0000 S   0  0  0  0  0  0  0  0  0  0  0  0
   -4.2868  -15.6750    0.0000 O   0  5  0  0  0  0  0  0  0  0  0  0
   -3.4618  -14.8500    0.0000 O   0  0  0  0  0  0  0  0  0  0  0  0
   -5.1118  -14.8500    0.0000 O   0  0  0  0  0  0  0  0  0  0  0  0
   -3.5724  -13.6125    0.0000 C   0  0  0  0  0  0  0  0  0  0  0  0
   -2.8579  -14.0250    0.0000 C   0  0  0  0  0  0  0  0  0  0  0  0
   -2.8579  -14.8500    0.0000 N   0  0  0  0  0  0  0  0  0  0  0  0
   -2.1434  -15.2625    0.0000 C   0  0  0  0  0  0  0  0  0  0  0  0
   -1.4289  -14.8500    0.0000 O   0  0  0  0  0  0  0  0  0  0  0  0
   -2.1434  -16.0875    0.0000 C   0  0  0  0  0  0  0  0  0  0  0  0
   -2.8579  -16.5000    0.0000 C   0  0  0  0  0  0  0  0  0  0  0  0
   -2.8579  -17.3250    0.0000 C   0  0  0  0  0  0  0  0  0  0  0  0
   -2.1434  -17.7375    0.0000 C   0  0  0  0  0  0  0  0  0  0  0  0
   -1.4289  -17.3250    0.0000 C   0  0  0  0  0  0  0  0  0  0  0  0
   -1.4289  -16.5000    0.0000 C   0  0  0  0  0  0  0  0  0  0  0  0
   -0.7145  -17.7375    0.0000 N   0  0  0  0  0  0  0  0  0  0  0  0
   -0.0000  -17.3250    0.0000 C   0  0  0  0  0  0  0  0  0  0  0  0
    0.7145  -17.7375    0.0000 O   0  0  0  0  0  0  0  0  0  0  0  0
   -0.0000  -16.5000    0.0000 C   0  0  0  0  0  0  0  0  0  0  0  0
   -0.7145  -16.0875    0.0000 C   0  0  0  0  0  0  0  0  0  0  0  0
   -0.7145  -15.2625    0.0000 C   0  0  0  0  0  0  0  0  0  0  0  0
   -0.0000  -14.8500    0.0000 C   0  0  0  0  0  0  0  0  0  0  0  0
    0.7145  -15.2625    0.0000 C   0  0  0  0  0  0  0  0  0  0  0  0
    0.7145  -16.0875    0.0000 C   0  0  0  0  0  0  0  0  0  0  0  0
    1.4289  -14.8500    0.0000 N   0  0  0  0  0  0  0  0  0  0  0  0
    2.1434  -15.2625    0.0000 C   0  0  0  0  0  0  0  0  0  0  0  0
    2.1434  -16.0875    0.0000 O   0  0  0  0  0  0  0  0  0  0  0  0
    2.8579  -14.8500    0.0000 N   0  0  0  0  0  0  0  0  0  0  0  0
    3.5724  -15.2625    0.0000 C   0  0  0  0  0  0  0  0  0  0  0  0
    4.2868  -14.8500    0.0000 C   0  0  0  0  0  0  0  0  0  0  0  0
    5.0013  -15.2625    0.0000 C   0  0  0  0  0  0  0  0  0  0  0  0
    5.0013  -16.0875    0.0000 C   0  0  0  0  0  0  0  0  0  0  0  0
    4.2868  -16.5000    0.0000 C   0  0  0  0  0  0  0  0  0  0  0  0
    3.5724  -16.0875    0.0000 C   0  0  0  0  0  0  0  0  0  0  0  0
    5.7158  -14.8500    0.0000 C   0  0  0  0  0  0  0  0  0  0  0  0
    5.7158  -14.0250    0.0000 O   0  0  0  0  0  0  0  0  0  0  0  0
    6.4302  -15.2625    0.0000 N   0  0  0  0  0  0  0  0  0  0  0  0
    7.1447  -14.8500    0.0000 C   0  0  0  0  0  0  0  0  0  0  0  0
    7.1447  -14.0250    0.0000 C   0  0  0  0  0  0  0  0  0  0  0  0
    7.8592  -13.6125    0.0000 C   0  0  0  0  0  0  0  0  0  0  0  0
    8.5737  -14.0250    0.0000 C   0  0  0  0  0  0  0  0  0  0  0  0
    8.5737  -14.8500    0.0000 C   0  0  0  0  0  0  0  0  0  0  0  0
    7.8592  -15.2625    0.0000 C   0  0  0  0  0  0  0  0  0  0  0  0
    7.8592  -16.0875    0.0000 C   0  0  0  0  0  0  0  0  0  0  0  0
    7.8592  -12.7875    0.0000 C   0  0  0  0  0  0  0  0  0  0  0  0
    7.1447  -12.3750    0.0000 O   0  0  0  0  0  0  0  0  0  0  0  0
    8.5737  -12.3750    0.0000 N   0  0  0  0  0  0  0  0  0  0  0  0
    8.5737  -11.5500    0.0000 C   0  0  0  0  0  0  0  0  0  0  0  0
    9.2881  -11.1375    0.0000 C   0  0  0  0  0  0  0  0  0  0  0  0
    9.2881  -10.3125    0.0000 C   0  0  0  0  0  0  0  0  0  0  0  0
    8.5737   -9.9000    0.0000 C   0  0  0  0  0  0  0  0  0  0  0  0
    8.5737   -9.0750    0.0000 S   0  0  0  0  0  0  0  0  0  0  0  0
    8.5737   -8.2500    0.0000 O   0  5  0  0  0  0  0  0  0  0  0  0
    9.3987   -9.0750    0.0000 O   0  0  0  0  0  0  0  0  0  0  0  0
    7.7487   -9.0750    0.0000 O   0  0  0  0  0  0  0  0  0  0  0  0
    7.8592  -10.3125    0.0000 C   0  0  0  0  0  0  0  0  0  0  0  0
    7.8592  -11.1375    0.0000 C   0  0  0  0  0  0  0  0  0  0  0  0
   10.0026   -9.9000    0.0000 C   0  0  0  0  0  0  0  0  0  0  0  0
   10.7171  -10.3125    0.0000 C   0  0  0  0  0  0  0  0  0  0  0  0
   11.4315   -9.9000    0.0000 S   0  0  0  0  0  0  0  0  0  0  0  0
   12.1460   -9.4875    0.0000 O   0  5  0  0  0  0  0  0  0  0  0  0
   11.8440  -10.6145    0.0000 O   0  0  0  0  0  0  0  0  0  0  0  0
   11.0190   -9.1855    0.0000 O   0  0  0  0  0  0  0  0  0  0  0  0
   10.7171  -11.1375    0.0000 C   0  0  0  0  0  0  0  0  0  0  0  0
   10.0026  -11.5500    0.0000 C   0  0  0  0  0  0  0  0  0  0  0  0
   10.0026  -12.3750    0.0000 S   0  0  0  0  0  0  0  0  0  0  0  0
   10.8276  -12.3750    0.0000 O   0  5  0  0  0  0  0  0  0  0  0  0
   10.0026  -13.2000    0.0000 O   0  0  0  0  0  0  0  0  0  0  0  0
    9.1776  -12.3750    0.0000 O   0  0  0  0  0  0  0  0  0  0  0  0
   -2.1434  -18.5625    0.0000 C   0  0  0  0  0  0  0  0  0  0  0  0
   -2.1434  -13.6125    0.0000 C   0  0  0  0  0  0  0  0  0  0  0  0
   -2.1434  -12.7875    0.0000 C   0  0  0  0  0  0  0  0  0  0  0  0
   -2.8579  -12.3750    0.0000 C   0  0  0  0  0  0  0  0  0  0  0  0
   -3.5724  -12.7875    0.0000 C   0  0  0  0  0  0  0  0  0  0  0  0
   -2.8579  -11.5500    0.0000 S   0  0  0  0  0  0  0  0  0  0  0  0
   -3.6829  -11.5500    0.0000 O   0  5  0  0  0  0  0  0  0  0  0  0
   -2.0329  -11.5500    0.0000 O   0  0  0  0  0  0  0  0  0  0  0  0
   -2.8579  -10.7250    0.0000 O   0  0  0  0  0  0  0  0  0  0  0  0
   -7.1447  -11.5500    0.0000 Na  0  3  0  0  0  0  0  0  0  0  0  0
   -4.2868  -16.5000    0.0000 Na  0  3  0  0  0  0  0  0  0  0  0  0
    8.5737   -7.4250    0.0000 Na  0  3  0  0  0  0  0  0  0  0  0  0
   12.8605   -9.0750    0.0000 Na  0  3  0  0  0  0  0  0  0  0  0  0
   11.6526  -12.3750    0.0000 Na  0  3  0  0  0  0  0  0  0  0  0  0
   -4.5079  -11.5500    0.0000 Na  0  3  0  0  0  0  0  0  0  0  0  0
  1  2  2  0  0  0  0
  2  3  1  0  0  0  0
  3  4  1  0  0  0  0
  3  5  2  0  0  0  0
  3  6  2  0  0  0  0
  2  7  1  0  0  0  0
  7  8  2  0  0  0  0
  8  9  1  0  0  0  0
  9 10  1  0  0  0  0
  9 11  2  0  0  0  0
  9 12  2  0  0  0  0
  8 13  1  0  0  0  0
 13 14  2  0  0  0  0
 14 15  1  0  0  0  0
 15 16  1  0  0  0  0
 16 17  2  0  0  0  0
 16 18  1  0  0  0  0
 18 19  2  0  0  0  0
 19 20  1  0  0  0  0
 20 21  2  0  0  0  0
 21 22  1  0  0  0  0
 22 23  2  0  0  0  0
 18 23  1  0  0  0  0
 22 24  1  0  0  0  0
 24 25  1  0  0  0  0
 25 26  2  0  0  0  0
 25 27  1  0  0  0  0
 27 28  2  0  0  0  0
 28 29  1  0  0  0  0
 29 30  2  0  0  0  0
 30 31  1  0  0  0  0
 31 32  2  0  0  0  0
 27 32  1  0  0  0  0
 31 33  1  0  0  0  0
 33 34  1  0  0  0  0
 34 35  2  0  0  0  0
 34 36  1  0  0  0  0
 36 37  1  0  0  0  0
 37 38  2  0  0  0  0
 38 39  1  0  0  0  0
 39 40  2  0  0  0  0
 40 41  1  0  0  0  0
 41 42  2  0  0  0  0
 37 42  1  0  0  0  0
 39 43  1  0  0  0  0
 43 44  2  0  0  0  0
 43 45  1  0  0  0  0
 45 46  1  0  0  0  0
 46 47  2  0  0  0  0
 47 48  1  0  0  0  0
 48 49  2  0  0  0  0
 49 50  1  0  0  0  0
 50 51  2  0  0  0  0
 46 51  1  0  0  0  0
 51 52  1  0  0  0  0
 48 53  1  0  0  0  0
 53 54  2  0  0  0  0
 53 55  1  0  0  0  0
 55 56  1  0  0  0  0
 56 57  2  0  0  0  0
 57 58  1  0  0  0  0
 58 59  2  0  0  0  0
 59 60  1  0  0  0  0
 60 61  1  0  0  0  0
 60 62  2  0  0  0  0
 60 63  2  0  0  0  0
 59 64  1  0  0  0  0
 64 65  2  0  0  0  0
 56 65  1  0  0  0  0
 58 66  1  0  0  0  0
 66 67  2  0  0  0  0
 67 68  1  0  0  0  0
 68 69  1  0  0  0  0
 68 70  2  0  0  0  0
 68 71  2  0  0  0  0
 67 72  1  0  0  0  0
 72 73  2  0  0  0  0
 57 73  1  0  0  0  0
 73 74  1  0  0  0  0
 74 75  1  0  0  0  0
 74 76  2  0  0  0  0
 74 77  2  0  0  0  0
 21 78  1  0  0  0  0
 14 79  1  0  0  0  0
 79 80  2  0  0  0  0
 80 81  1  0  0  0  0
 81 82  2  0  0  0  0
  1 82  1  0  0  0  0
 13 82  1  0  0  0  0
 81 83  1  0  0  0  0
 83 84  1  0  0  0  0
 83 85  2  0  0  0  0
 83 86  2  0  0  0  0
M  CHG  8   4  -1  10  -1  61  -1  69  -1  75  -1  84  -1  87   1  88   1
M  CHG  4  89   1  90   1  91   1  92   1
M  END
>  <Name>
Suramin Sodium Salt

>  <CAS>
129-46-4

>  <Formula>
C51H34N6O23S6

>  <MolWt>
1291.34 

>  <Bioactivity>
Suramin sodium salt is a polysulfonated naphthylurea that inhibits the binding of calmodulin to recognition sites on the ryanodine receptor-1 (IC50 = 4.9 ?M), blocks G protein coupling to GPCRs, and non-selectively antagonizes P2 purinergic receptors (10-100 ?M).

>  <Pathways>
Neuroscience

>  <Target>
P2 Receptor inhibitor

>  <Receptor>
P2Y Receptor

>  <Reference>
1. Klinger M, et al. Biochem J. 2001 May 1;355(Pt 3):827-33.

$$$$
T2864
  Mrv1561503291623562D          

 40 39  0  0  0  0            999 V2000
    2.0625    0.7145    0.0000 C   0  0  0  0  0  0  0  0  0  0  0  0
    2.4750    1.4289    0.0000 C   0  0  0  0  0  0  0  0  0  0  0  0
    3.3000    1.4289    0.0000 C   0  0  0  0  0  0  0  0  0  0  0  0
    3.7125    2.1434    0.0000 C   0  0  0  0  0  0  0  0  0  0  0  0
    4.5375    2.1434    0.0000 C   0  0  0  0  0  0  0  0  0  0  0  0
    4.9500    2.8579    0.0000 C   0  0  0  0  0  0  0  0  0  0  0  0
    5.7750    2.8579    0.0000 C   0  0  0  0  0  0  0  0  0  0  0  0
    6.1875    3.5724    0.0000 C   0  0  0  0  0  0  0  0  0  0  0  0
    7.0125    3.5724    0.0000 C   0  0  0  0  0  0  0  0  0  0  0  0
    7.4250    4.2868    0.0000 C   0  0  0  0  0  0  0  0  0  0  0  0
    8.2500    4.2868    0.0000 C   0  0  0  0  0  0  0  0  0  0  0  0
    8.6625    5.0013    0.0000 C   0  0  0  0  0  0  0  0  0  0  0  0
    9.4875    5.0013    0.0000 C   0  0  0  0  0  0  0  0  0  0  0  0
    9.9000    5.7158    0.0000 C   0  0  0  0  0  0  0  0  0  0  0  0
   10.7250    5.7158    0.0000 C   0  0  0  0  0  0  0  0  0  0  0  0
   11.1375    6.4302    0.0000 C   0  0  0  0  0  0  0  0  0  0  0  0
   11.9625    6.4302    0.0000 C   0  0  0  0  0  0  0  0  0  0  0  0
   12.3750    7.1447    0.0000 C   0  0  0  0  0  0  0  0  0  0  0  0
   13.2000    7.1447    0.0000 C   0  0  0  0  0  0  0  0  0  0  0  0
   13.6125    7.8592    0.0000 C   0  0  0  0  0  0  0  0  0  0  0  0
   14.4375    7.8592    0.0000 C   0  0  0  0  0  0  0  0  0  0  0  0
   14.8500    8.5737    0.0000 C   0  0  0  0  0  0  0  0  0  0  0  0
   15.6750    8.5737    0.0000 C   0  0  0  0  0  0  0  0  0  0  0  0
   16.0875    9.2881    0.0000 C   0  0  0  0  0  0  0  0  0  0  0  0
   16.9125    9.2881    0.0000 C   0  0  0  0  0  0  0  0  0  0  0  0
   17.3250   10.0026    0.0000 C   0  0  0  0  0  0  0  0  0  0  0  0
   18.1500   10.0026    0.0000 C   0  0  0  0  0  0  0  0  0  0  0  0
   18.5625   10.7171    0.0000 C   0  0  0  0  0  0  0  0  0  0  0  0
   18.5625    9.2881    0.0000 C   0  0  0  0  0  0  0  0  0  0  0  0
   16.0875    7.8592    0.0000 C   0  0  0  0  0  0  0  0  0  0  0  0
   13.6125    6.4302    0.0000 C   0  0  0  0  0  0  0  0  0  0  0  0
   11.1375    5.0013    0.0000 C   0  0  0  0  0  0  0  0  0  0  0  0
    7.0125    5.0013    0.0000 C   0  0  0  0  0  0  0  0  0  0  0  0
    4.5375    3.5724    0.0000 C   0  0  0  0  0  0  0  0  0  0  0  0
    2.0625    2.1434    0.0000 C   0  0  0  0  0  0  0  0  0  0  0  0
    1.2375    0.7145    0.0000 C   0  0  0  0  0  0  0  0  0  0  0  0
    0.8250    0.0000    0.0000 C   0  0  0  0  0  0  0  0  0  0  0  0
    0.0000    0.0000    0.0000 C   0  0  0  0  0  0  0  0  0  0  0  0
   -0.4125   -0.7145    0.0000 C   0  0  0  0  0  0  0  0  0  0  0  0
   -0.4125    0.7145    0.0000 C   0  0  0  0  0  0  0  0  0  0  0  0
  1  2  1  0  0  0  0
  2  3  2  0  0  0  0
  3  4  1  0  0  0  0
  4  5  2  0  0  0  0
  5  6  1  0  0  0  0
  6  7  2  0  0  0  0
  7  8  1  0  0  0  0
  8  9  2  0  0  0  0
  9 10  1  0  0  0  0
 10 11  2  0  0  0  0
 11 12  1  0  0  0  0
 12 13  2  0  0  0  0
 13 14  1  0  0  0  0
 14 15  2  0  0  0  0
 15 16  1  0  0  0  0
 16 17  2  0  0  0  0
 17 18  1  0  0  0  0
 18 19  2  0  0  0  0
 19 20  1  0  0  0  0
 20 21  2  0  0  0  0
 21 22  1  0  0  0  0
 22 23  2  0  0  0  0
 23 24  1  0  0  0  0
 24 25  1  0  0  0  0
 25 26  1  0  0  0  0
 26 27  2  0  0  0  0
 27 28  1  0  0  0  0
 27 29  1  0  0  0  0
 23 30  1  0  0  0  0
 19 31  1  0  0  0  0
 15 32  1  0  0  0  0
 10 33  1  0  0  0  0
  6 34  1  0  0  0  0
  2 35  1  0  0  0  0
  1 36  1  0  0  0  0
 36 37  1  0  0  0  0
 37 38  2  0  0  0  0
 38 39  1  0  0  0  0
 38 40  1  0  0  0  0
M  END
>  <Name>
Lycopene

>  <CAS>
502-65-8

>  <Formula>
C40H56

>  <MolWt>
536.89 

>  <Bioactivity>
Extracted from Papaya fruit, marigold flower petals;Store the product in sealed, cool and dry condition

>  <Pathways>
Immunology/Inflammation

>  <Target>
ROS 

>  <Receptor>
ROS

>  <Reference>
1. Grainger EM, et al. Br J Nutr. 2015 Aug 28;114(4):596-607. 

$$$$
T2759
  Mrv1561503291623562D          

 27 29  0  0  1  0            999 V2000
    0.6411   -1.1104    0.0000 C   0  0  2  0  0  0  0  0  0  0  0  0
    0.6411   -0.2854    0.0000 C   0  0  1  0  0  0  0  0  0  0  0  0
    1.3556    0.1271    0.0000 C   0  0  0  0  0  0  0  0  0  0  0  0
    2.0701   -0.2854    0.0000 C   0  0  0  0  0  0  0  0  0  0  0  0
    2.0701   -1.1104    0.0000 O   0  0  0  0  0  0  0  0  0  0  0  0
    1.3556   -1.5229    0.0000 C   0  0  1  0  0  0  0  0  0  0  0  0
    1.3556   -2.3479    0.0000 O   0  0  0  0  0  0  0  0  0  0  0  0
    2.0701   -2.7604    0.0000 C   0  0  2  0  0  0  0  0  0  0  0  0
    2.7845   -2.3479    0.0000 O   0  0  0  0  0  0  0  0  0  0  0  0
    3.4990   -2.7604    0.0000 C   0  0  1  0  0  0  0  0  0  0  0  0
    3.4990   -3.5854    0.0000 C   0  0  1  0  0  0  0  0  0  0  0  0
    4.2135   -3.9979    0.0000 O   0  0  0  0  0  0  0  0  0  0  0  0
    2.7845   -3.9979    0.0000 C   0  0  2  0  0  0  0  0  0  0  0  0
    2.7845   -4.8229    0.0000 O   0  0  0  0  0  0  0  0  0  0  0  0
    2.0701   -3.5854    0.0000 C   0  0  1  0  0  0  0  0  0  0  0  0
    1.3556   -3.9979    0.0000 O   0  0  0  0  0  0  0  0  0  0  0  0
    4.2135   -2.3479    0.0000 C   0  0  0  0  0  0  0  0  0  0  0  0
    4.9279   -2.7604    0.0000 O   0  0  0  0  0  0  0  0  0  0  0  0
    1.3556    0.9521    0.0000 C   0  0  0  0  0  0  0  0  0  0  0  0
    2.0701    1.3646    0.0000 O   0  0  0  0  0  0  0  0  0  0  0  0
    2.0701    2.1896    0.0000 C   0  0  0  0  0  0  0  0  0  0  0  0
    0.6411    1.3646    0.0000 O   0  0  0  0  0  0  0  0  0  0  0  0
   -0.1435   -0.0305    0.0000 C   0  0  0  0  0  0  0  0  0  0  0  0
   -0.6284   -0.6979    0.0000 C   0  0  2  0  0  0  0  0  0  0  0  0
   -1.4534   -0.6979    0.0000 O   0  0  0  0  0  0  0  0  0  0  0  0
   -0.1435   -1.3654    0.0000 C   0  0  2  0  0  0  0  0  0  0  0  0
   -0.3984   -2.1500    0.0000 C   0  0  0  0  0  0  0  0  0  0  0  0
  1  2  1  0  0  0  0
  2  3  1  0  0  0  0
  3  4  2  0  0  0  0
  4  5  1  0  0  0  0
  5  6  1  0  0  0  0
  1  6  1  0  0  0  0
  6  7  1  1  0  0  0
  8  7  1  6  0  0  0
  8  9  1  0  0  0  0
  9 10  1  0  0  0  0
 10 11  1  0  0  0  0
 11 12  1  1  0  0  0
 11 13  1  0  0  0  0
 13 14  1  6  0  0  0
 13 15  1  0  0  0  0
  8 15  1  0  0  0  0
 15 16  1  1  0  0  0
 10 17  1  6  0  0  0
 17 18  1  0  0  0  0
  3 19  1  0  0  0  0
 19 20  1  0  0  0  0
 20 21  1  0  0  0  0
 19 22  2  0  0  0  0
  2 23  1  6  0  0  0
 23 24  1  0  0  0  0
 24 25  1  1  0  0  0
 24 26  1  0  0  0  0
  1 26  1  6  0  0  0
 26 27  1  1  0  0  0
M  END
>  <Name>
Loganin

>  <CAS>
18524-94-2

>  <Formula>
C17H26O10

>  <MolWt>
390.38 

>  <Bioactivity>
Loganin,an iridoid glucosides,has been reported to be an inhibitor of Cox-1 and also noted to suppress TNF-? formation. This compound also has displayed potent free-radical-scavenging activity and inhibitory effects on melanogenesis. Research has shown

>  <Pathways>
Immunology/Inflammation

>  <Target>
NF-?B inhibitor

>  <Receptor>
NF-?B

>  <Reference>
1. Liu K, et al. Life Sci. 2015 Feb 15;123:78-85.

$$$$
379-79-3
  Mrv1561503291623562D          

 96109  0  0  1  0            999 V2000
    1.9126    0.9447    0.0000 C   0  0  1  0  0  0  0  0  0  0  0  0
    1.9212    0.1197    0.0000 N   0  0  0  0  0  0  0  0  0  0  0  0
    1.1393   -0.1434    0.0000 C   0  0  0  0  0  0  0  0  0  0  0  0
    0.6474    0.5189    0.0000 C   0  0  1  0  0  0  0  0  0  0  0  0
    1.1253    1.1914    0.0000 O   0  0  0  0  0  0  0  0  0  0  0  0
   -0.0670    0.1064    0.0000 N   0  0  0  0  0  0  0  0  0  0  0  0
   -0.7815    0.5189    0.0000 C   0  0  0  0  0  0  0  0  0  0  0  0
   -1.4960    0.1064    0.0000 C   0  0  2  0  0  0  0  0  0  0  0  0
   -2.2104    0.5189    0.0000 C   0  0  0  0  0  0  0  0  0  0  0  0
   -2.9249    0.1064    0.0000 C   0  0  0  0  0  0  0  0  0  0  0  0
   -3.6394    0.5189    0.0000 C   0  0  0  0  0  0  0  0  0  0  0  0
   -4.3539    0.1064    0.0000 C   0  0  0  0  0  0  0  0  0  0  0  0
   -4.3539   -0.7186    0.0000 C   0  0  0  0  0  0  0  0  0  0  0  0
   -5.1385   -0.9735    0.0000 C   0  0  0  0  0  0  0  0  0  0  0  0
   -5.6234   -0.3061    0.0000 N   0  0  0  0  0  0  0  0  0  0  0  0
   -5.1385    0.3613    0.0000 C   0  0  0  0  0  0  0  0  0  0  0  0
   -5.3100    1.1683    0.0000 C   0  0  0  0  0  0  0  0  0  0  0  0
   -4.6969    1.7203    0.0000 C   0  0  0  0  0  0  0  0  0  0  0  0
   -3.9123    1.4654    0.0000 C   0  0  0  0  0  0  0  0  0  0  0  0
   -3.6394   -1.1311    0.0000 C   0  0  0  0  0  0  0  0  0  0  0  0
   -2.9249   -0.7186    0.0000 C   0  0  1  0  0  0  0  0  0  0  0  0
   -2.2104   -1.1311    0.0000 N   0  0  0  0  0  0  0  0  0  0  0  0
   -1.4960   -0.7186    0.0000 C   0  0  0  0  0  0  0  0  0  0  0  0
   -2.2104   -1.9561    0.0000 C   0  0  0  0  0  0  0  0  0  0  0  0
   -0.7815    1.3439    0.0000 O   0  0  0  0  0  0  0  0  0  0  0  0
   -0.0755    0.9163    0.0000 C   0  0  0  0  0  0  0  0  0  0  0  0
    0.8926   -0.9307    0.0000 O   0  0  0  0  0  0  0  0  0  0  0  0
    2.6400   -0.2853    0.0000 C   0  0  2  0  0  0  0  0  0  0  0  0
    3.3501    0.1347    0.0000 C   0  0  0  0  0  0  0  0  0  0  0  0
    3.3415    0.9596    0.0000 N   0  0  0  0  0  0  0  0  0  0  0  0
    2.6227    1.3646    0.0000 C   0  0  1  0  0  0  0  0  0  0  0  0
    2.7858    2.1733    0.0000 C   0  0  0  0  0  0  0  0  0  0  0  0
    3.6053    2.2682    0.0000 C   0  0  0  0  0  0  0  0  0  0  0  0
    3.9487    1.5180    0.0000 C   0  0  0  0  0  0  0  0  0  0  0  0
    4.0689   -0.2703    0.0000 O   0  0  0  0  0  0  0  0  0  0  0  0
    2.6486   -1.1102    0.0000 C   0  0  0  0  0  0  0  0  0  0  0  0
    3.3674   -1.5152    0.0000 C   0  0  0  0  0  0  0  0  0  0  0  0
    4.0775   -1.0953    0.0000 C   0  0  0  0  0  0  0  0  0  0  0  0
    4.7962   -1.5003    0.0000 C   0  0  0  0  0  0  0  0  0  0  0  0
    4.8049   -2.3252    0.0000 C   0  0  0  0  0  0  0  0  0  0  0  0
    4.0948   -2.7452    0.0000 C   0  0  0  0  0  0  0  0  0  0  0  0
    3.3760   -2.3402    0.0000 C   0  0  0  0  0  0  0  0  0  0  0  0
    1.8178    1.7642    0.0000 O   0  0  0  0  0  0  0  0  0  0  0  0
   14.2266    0.9447    0.0000 C   0  0  1  0  0  0  0  0  0  0  0  0
   14.2352    0.1197    0.0000 N   0  0  0  0  0  0  0  0  0  0  0  0
   13.4533   -0.1434    0.0000 C   0  0  0  0  0  0  0  0  0  0  0  0
   12.9614    0.5189    0.0000 C   0  0  1  0  0  0  0  0  0  0  0  0
   13.4393    1.1914    0.0000 O   0  0  0  0  0  0  0  0  0  0  0  0
   12.2470    0.1064    0.0000 N   0  0  0  0  0  0  0  0  0  0  0  0
   11.5325    0.5189    0.0000 C   0  0  0  0  0  0  0  0  0  0  0  0
   10.8180    0.1064    0.0000 C   0  0  2  0  0  0  0  0  0  0  0  0
   10.1036    0.5189    0.0000 C   0  0  0  0  0  0  0  0  0  0  0  0
    9.3891    0.1064    0.0000 C   0  0  0  0  0  0  0  0  0  0  0  0
    8.6746    0.5189    0.0000 C   0  0  0  0  0  0  0  0  0  0  0  0
    7.9601    0.1064    0.0000 C   0  0  0  0  0  0  0  0  0  0  0  0
    7.9601   -0.7186    0.0000 C   0  0  0  0  0  0  0  0  0  0  0  0
    7.1755   -0.9735    0.0000 C   0  0  0  0  0  0  0  0  0  0  0  0
    6.6906   -0.3061    0.0000 N   0  0  0  0  0  0  0  0  0  0  0  0
    7.1755    0.3613    0.0000 C   0  0  0  0  0  0  0  0  0  0  0  0
    7.0040    1.1683    0.0000 C   0  0  0  0  0  0  0  0  0  0  0  0
    7.6171    1.7203    0.0000 C   0  0  0  0  0  0  0  0  0  0  0  0
    8.4017    1.4654    0.0000 C   0  0  0  0  0  0  0  0  0  0  0  0
    8.6746   -1.1311    0.0000 C   0  0  0  0  0  0  0  0  0  0  0  0
    9.3891   -0.7186    0.0000 C   0  0  1  0  0  0  0  0  0  0  0  0
   10.1036   -1.1311    0.0000 N   0  0  0  0  0  0  0  0  0  0  0  0
   10.8180   -0.7186    0.0000 C   0  0  0  0  0  0  0  0  0  0  0  0
   10.1036   -1.9561    0.0000 C   0  0  0  0  0  0  0  0  0  0  0  0
   11.5325    1.3439    0.0000 O   0  0  0  0  0  0  0  0  0  0  0  0
   12.2385    0.9163    0.0000 C   0  0  0  0  0  0  0  0  0  0  0  0
   13.2066   -0.9307    0.0000 O   0  0  0  0  0  0  0  0  0  0  0  0
   14.9540   -0.2853    0.0000 C   0  0  2  0  0  0  0  0  0  0  0  0
   15.6641    0.1347    0.0000 C   0  0  0  0  0  0  0  0  0  0  0  0
   15.6555    0.9596    0.0000 N   0  0  0  0  0  0  0  0  0  0  0  0
   14.9367    1.3646    0.0000 C   0  0  1  0  0  0  0  0  0  0  0  0
   15.0998    2.1733    0.0000 C   0  0  0  0  0  0  0  0  0  0  0  0
   15.9193    2.2682    0.0000 C   0  0  0  0  0  0  0  0  0  0  0  0
   16.2627    1.5180    0.0000 C   0  0  0  0  0  0  0  0  0  0  0  0
   16.3828   -0.2703    0.0000 O   0  0  0  0  0  0  0  0  0  0  0  0
   14.9626   -1.1102    0.0000 C   0  0  0  0  0  0  0  0  0  0  0  0
   15.6814   -1.5152    0.0000 C   0  0  0  0  0  0  0  0  0  0  0  0
   16.3915   -1.0953    0.0000 C   0  0  0  0  0  0  0  0  0  0  0  0
   17.1102   -1.5003    0.0000 C   0  0  0  0  0  0  0  0  0  0  0  0
   17.1189   -2.3252    0.0000 C   0  0  0  0  0  0  0  0  0  0  0  0
   16.4088   -2.7452    0.0000 C   0  0  0  0  0  0  0  0  0  0  0  0
   15.6900   -2.3402    0.0000 C   0  0  0  0  0  0  0  0  0  0  0  0
   14.1318    1.7642    0.0000 O   0  0  0  0  0  0  0  0  0  0  0  0
    0.3572   -5.2202    0.0000 C   0  0  2  0  0  0  0  0  0  0  0  0
   -0.3572   -5.6327    0.0000 C   0  0  2  0  0  0  0  0  0  0  0  0
   -1.0717   -5.2202    0.0000 C   0  0  0  0  0  0  0  0  0  0  0  0
   -1.7862   -5.6327    0.0000 O   0  0  0  0  0  0  0  0  0  0  0  0
   -1.0717   -4.3952    0.0000 O   0  5  0  0  0  0  0  0  0  0  0  0
   -0.3572   -6.4577    0.0000 O   0  0  0  0  0  0  0  0  0  0  0  0
    1.0717   -5.6327    0.0000 C   0  0  0  0  0  0  0  0  0  0  0  0
    1.7862   -5.2202    0.0000 O   0  0  0  0  0  0  0  0  0  0  0  0
    1.0717   -6.4577    0.0000 O   0  0  0  0  0  0  0  0  0  0  0  0
    0.3572   -4.3952    0.0000 O   0  0  0  0  0  0  0  0  0  0  0  0
  1  2  1  0  0  0  0
  2  3  1  0  0  0  0
  3  4  1  0  0  0  0
  4  5  1  0  0  0  0
  1  5  1  0  0  0  0
  4  6  1  6  0  0  0
  6  7  1  0  0  0  0
  8  7  1  1  0  0  0
  8  9  1  0  0  0  0
  9 10  2  0  0  0  0
 10 11  1  0  0  0  0
 11 12  2  0  0  0  0
 12 13  1  0  0  0  0
 13 14  2  0  0  0  0
 14 15  1  0  0  0  0
 15 16  1  0  0  0  0
 12 16  1  0  0  0  0
 16 17  2  0  0  0  0
 17 18  1  0  0  0  0
 18 19  2  0  0  0  0
 11 19  1  0  0  0  0
 13 20  1  0  0  0  0
 20 21  1  0  0  0  0
 10 21  1  0  0  0  0
 21 22  1  6  0  0  0
 22 23  1  0  0  0  0
  8 23  1  0  0  0  0
 22 24  1  0  0  0  0
  7 25  2  0  0  0  0
  4 26  1  1  0  0  0
  3 27  2  0  0  0  0
  2 28  1  0  0  0  0
 28 29  1  0  0  0  0
 29 30  1  0  0  0  0
 31 30  1  6  0  0  0
  1 31  1  0  0  0  0
 31 32  1  0  0  0  0
 32 33  1  0  0  0  0
 33 34  1  0  0  0  0
 30 34  1  0  0  0  0
 29 35  2  0  0  0  0
 28 36  1  6  0  0  0
 36 37  1  0  0  0  0
 37 38  2  0  0  0  0
 38 39  1  0  0  0  0
 39 40  2  0  0  0  0
 40 41  1  0  0  0  0
 41 42  2  0  0  0  0
 37 42  1  0  0  0  0
  1 43  1  6  0  0  0
 44 45  1  0  0  0  0
 45 46  1  0  0  0  0
 46 47  1  0  0  0  0
 47 48  1  0  0  0  0
 44 48  1  0  0  0  0
 47 49  1  6  0  0  0
 49 50  1  0  0  0  0
 51 50  1  1  0  0  0
 51 52  1  0  0  0  0
 52 53  2  0  0  0  0
 53 54  1  0  0  0  0
 54 55  2  0  0  0  0
 55 56  1  0  0  0  0
 56 57  2  0  0  0  0
 57 58  1  0  0  0  0
 58 59  1  0  0  0  0
 55 59  1  0  0  0  0
 59 60  2  0  0  0  0
 60 61  1  0  0  0  0
 61 62  2  0  0  0  0
 54 62  1  0  0  0  0
 56 63  1  0  0  0  0
 63 64  1  0  0  0  0
 53 64  1  0  0  0  0
 64 65  1  6  0  0  0
 65 66  1  0  0  0  0
 51 66  1  0  0  0  0
 65 67  1  0  0  0  0
 50 68  2  0  0  0  0
 47 69  1  1  0  0  0
 46 70  2  0  0  0  0
 45 71  1  0  0  0  0
 71 72  1  0  0  0  0
 72 73  1  0  0  0  0
 74 73  1  6  0  0  0
 44 74  1  0  0  0  0
 74 75  1  0  0  0  0
 75 76  1  0  0  0  0
 76 77  1  0  0  0  0
 73 77  1  0  0  0  0
 72 78  2  0  0  0  0
 71 79  1  6  0  0  0
 79 80  1  0  0  0  0
 80 81  2  0  0  0  0
 81 82  1  0  0  0  0
 82 83  2  0  0  0  0
 83 84  1  0  0  0  0
 84 85  2  0  0  0  0
 80 85  1  0  0  0  0
 44 86  1  6  0  0  0
 87 88  1  0  0  0  0
 88 89  1  0  0  0  0
 89 90  2  0  0  0  0
 89 91  1  0  0  0  0
 88 92  1  1  0  0  0
 87 93  1  0  0  0  0
 93 94  1  0  0  0  0
 93 95  2  0  0  0  0
 87 96  1  1  0  0  0
M  CHG  1  91  -1
M  END
>  <Name>
Ergotamine bitartrate

>  <CAS>
379-79-3

>  <Formula>
2(C33H35N5O5).C4H6O6

>  <MolWt>
1313.43 

>  <Bioactivity>
Ergotamine Tartrate is the tartrate salt form of ergotamine, an ergot alkaloid and adrenergic alpha agonist with vasoconstrictor activity. Ergotamine tartrate selectively binds to alpha-adrenergic receptors thereby stimulating vascular smooth muscle and causing vasoconstriction in both arteries and veins. Ergotamine tartrate also blocks serotonin 5-HT1D receptors, thereby also causing vasoconstriction in cerebral blood vessels. Constriction of cerebral blood vessels caused by this agent may reduce the blood flow and pressure in cerebral arteries and may relieve the pain of vascular headaches.

>  <Pathways>
Neuroscience

>  <Target>
5-HT Receptor agonist

>  <Receptor>
5-HT1D receptor

>  <Reference>
1. Pakfetrat M, et al. Saudi J Kidney Dis Transpl. 2013 Sep;24(5):981-3.

$$$$
T1502
  Mrv1561503291623562D          

 22 25  0  0  0  0            999 V2000
    3.5865   -4.4109    0.0000 C   0  0  0  0  0  0  0  0  0  0  0  0
    3.1740   -5.1254    0.0000 C   0  0  0  0  0  0  0  0  0  0  0  0
    2.3671   -4.9539    0.0000 C   0  0  0  0  0  0  0  0  0  0  0  0
    2.2808   -4.1334    0.0000 N   0  0  0  0  0  0  0  0  0  0  0  0
    3.0344   -3.7978    0.0000 C   0  0  0  0  0  0  0  0  0  0  0  0
    1.5663   -3.7210    0.0000 C   0  0  0  0  0  0  0  0  0  0  0  0
    0.8518   -4.1335    0.0000 O   0  0  0  0  0  0  0  0  0  0  0  0
    1.5662   -2.8960    0.0000 C   0  0  0  0  0  0  0  0  0  0  0  0
    0.8517   -2.4835    0.0000 N   0  0  0  0  0  0  0  0  0  0  0  0
    0.8517   -1.6585    0.0000 C   0  0  0  0  0  0  0  0  0  0  0  0
    0.1163   -2.0322    0.0000 C   0  0  0  0  0  0  0  0  0  0  0  0
    0.5657   -1.2419    0.0000 C   0  0  0  0  0  0  0  0  0  0  0  0
    0.5657   -0.4945    0.0000 C   0  0  0  0  0  0  0  0  0  0  0  0
    1.3012   -0.1208    0.0000 C   0  0  0  0  0  0  0  0  0  0  0  0
    0.8517   -0.9111    0.0000 C   0  0  0  0  0  0  0  0  0  0  0  0
    2.0368   -0.4945    0.0000 C   0  0  0  0  0  0  0  0  0  0  0  0
    2.0368   -1.2419    0.0000 C   0  0  0  0  0  0  0  0  0  0  0  0
    1.3012   -1.6156    0.0000 C   0  0  0  0  0  0  0  0  0  0  0  0
    1.5873   -2.0322    0.0000 C   0  0  0  0  0  0  0  0  0  0  0  0
    2.8344   -1.4529    0.0000 O   0  0  0  0  0  0  0  0  0  0  0  0
    1.7540   -5.5060    0.0000 C   0  0  0  0  0  0  0  0  0  0  0  0
    1.1409   -6.0580    0.0000 N   0  0  0  0  0  0  0  0  0  0  0  0
  1  2  1  0  0  0  0
  2  3  1  0  0  0  0
  3  4  1  0  0  0  0
  4  5  1  0  0  0  0
  1  5  1  0  0  0  0
  4  6  1  0  0  0  0
  6  7  2  0  0  0  0
  6  8  1  0  0  0  0
  8  9  1  0  0  0  0
  9 10  1  0  0  0  0
 10 11  1  0  0  0  0
 11 12  1  0  0  0  0
 10 19  1  0  0  0  0
 13 14  1  0  0  0  0
 14 15  1  0  0  0  0
 17 19  1  0  0  0  0
 14 16  1  0  0  0  0
 12 18  1  0  0  0  0
 17 18  1  0  0  0  0
 16 17  1  0  0  0  0
 10 15  1  0  0  0  0
 12 13  1  0  0  0  0
 17 20  1  0  0  0  0
  3 21  1  0  0  0  0
 21 22  3  0  0  0  0
M  END
>  <Name>
Vildagliptin (LAF-237)

>  <CAS>
274901-16-5

>  <Formula>
C17H25N3O2

>  <MolWt>
303.40 

>  <Bioactivity>
Vildagliptin, previously identified as LAF237, is a new oral anti-hyperglycemic agent (anti-diabetic drug) of the new dipeptidyl peptidase-4 (DPP-4) inhibitor class of drugs. Vildagliptin inhibits the inactivation of GLP-1 and GIP by DPP-4, allowing GLP-1 and GIP to potentiate the secretion of insulin in the beta cells and suppress glucaon release by the alpha cells of the islets of Langerhans in the pancreas. It is currently in clinical trials in the U.S. and has been shown to reduce hyperglycemia in type 2 diabetes mellitus. While the drug is still not approved for use in the US, it was approved in Feb 2008 by European Medicines Agency for use within the EU and is listed on the Australian PBS with certain restrictions. 

>  <Pathways>
Proteases/Proteasome

>  <Target>
DPP-4 inhibitor

>  <Receptor>
DDP-4

>  <Reference>
1. Villhauer EB, et al. J Med Chem, 2003, 46(13), 2774-2789.

$$$$
T1486
  Mrv1561503291623562D          

 27 26  0  0  1  0            999 V2000
    0.2923    0.3562    0.0000 C   0  0  1  0  0  0  0  0  0  0  0  0
    1.0068   -0.0562    0.0000 C   0  0  1  0  0  0  0  0  0  0  0  0
    1.0068   -0.8812    0.0000 C   0  0  2  0  0  0  0  0  0  0  0  0
    0.2923   -1.2937    0.0000 C   0  0  0  0  0  0  0  0  0  0  0  0
   -0.4222   -0.8813    0.0000 C   0  0  0  0  0  0  0  0  0  0  0  0
   -0.4222   -0.0563    0.0000 C   0  0  0  0  0  0  0  0  0  0  0  0
   -1.1367   -1.2937    0.0000 C   0  0  0  0  0  0  0  0  0  0  0  0
   -1.8511   -0.8812    0.0000 O   0  0  0  0  0  0  0  0  0  0  0  0
   -2.5656   -1.2937    0.0000 C   0  0  0  0  0  0  0  0  0  0  0  0
   -3.2801   -0.8812    0.0000 C   0  0  0  0  0  0  0  0  0  0  0  0
   -1.1367   -2.1187    0.0000 O   0  0  0  0  0  0  0  0  0  0  0  0
    1.7212   -1.2937    0.0000 N   0  0  0  0  0  0  0  0  0  0  0  0
    1.7212    0.3563    0.0000 N   0  0  0  0  0  0  0  0  0  0  0  0
    2.4357   -0.0562    0.0000 C   0  0  0  0  0  0  0  0  0  0  0  0
    3.1502    0.3563    0.0000 C   0  0  0  0  0  0  0  0  0  0  0  0
    2.4357   -0.8812    0.0000 O   0  0  0  0  0  0  0  0  0  0  0  0
    0.2923    1.1812    0.0000 O   0  0  0  0  0  0  0  0  0  0  0  0
   -0.4222    1.5937    0.0000 C   0  0  0  0  0  0  0  0  0  0  0  0
   -1.1367    1.1812    0.0000 C   0  0  0  0  0  0  0  0  0  0  0  0
   -1.8511    1.5937    0.0000 C   0  0  0  0  0  0  0  0  0  0  0  0
   -0.4222    2.4187    0.0000 C   0  0  0  0  0  0  0  0  0  0  0  0
    0.2923    2.8312    0.0000 C   0  0  0  0  0  0  0  0  0  0  0  0
    5.8609   -0.8250    0.0000 O   0  0  0  0  0  0  0  0  0  0  0  0
    5.8609    0.0000    0.0000 P   0  0  0  0  0  0  0  0  0  0  0  0
    5.8609    0.8250    0.0000 O   0  0  0  0  0  0  0  0  0  0  0  0
    6.6859   -0.0000    0.0000 O   0  0  0  0  0  0  0  0  0  0  0  0
    5.0359    0.0000    0.0000 O   0  0  0  0  0  0  0  0  0  0  0  0
  1  2  1  0  0  0  0
  2  3  1  0  0  0  0
  3  4  1  0  0  0  0
  4  5  1  0  0  0  0
  5  6  2  0  0  0  0
  1  6  1  0  0  0  0
  5  7  1  0  0  0  0
  7  8  1  0  0  0  0
  8  9  1  0  0  0  0
  9 10  1  0  0  0  0
  7 11  2  0  0  0  0
  3 12  1  1  0  0  0
  2 13  1  6  0  0  0
 13 14  1  0  0  0  0
 14 15  1  0  0  0  0
 14 16  2  0  0  0  0
  1 17  1  1  0  0  0
 17 18  1  0  0  0  0
 18 19  1  0  0  0  0
 19 20  1  0  0  0  0
 18 21  1  0  0  0  0
 21 22  1  0  0  0  0
 23 24  2  0  0  0  0
 24 25  1  0  0  0  0
 24 26  1  0  0  0  0
 24 27  1  0  0  0  0
M  END
>  <Name>
Oseltamivir phosphate

>  <CAS>
204255-11-8

>  <Formula>
C16H28N2O4.H3PO4

>  <MolWt>
410.40 

>  <Bioactivity>
An acetamido cyclohexene that is a structural homolog of SIALIC ACID and inhibits NEURAMINIDASE.  

>  <Pathways>
Microbiology & Virology

>  <Target>
Influenza Virus

>  <Receptor>
influenza A and B

>  <Reference>
1. McKimm-Breschkin J, et al. Antimicrob Agents Chemother. 2003 Jul;47(7):2264-72. 

$$$$
168273-06-1
  Mrv1561503291623562D          

 30 33  0  0  0  0            999 V2000
   -0.0000    0.0000    0.0000 C   0  0  0  0  0  0  0  0  0  0  0  0
    0.7145   -0.4125    0.0000 C   0  0  0  0  0  0  0  0  0  0  0  0
    0.7145   -1.2375    0.0000 N   0  0  0  0  0  0  0  0  0  0  0  0
    1.3819   -1.7224    0.0000 N   0  0  0  0  0  0  0  0  0  0  0  0
    1.1270   -2.5070    0.0000 C   0  0  0  0  0  0  0  0  0  0  0  0
    1.6119   -3.1745    0.0000 C   0  0  0  0  0  0  0  0  0  0  0  0
    2.4324   -3.0882    0.0000 N   0  0  0  0  0  0  0  0  0  0  0  0
    2.9173   -3.7557    0.0000 N   0  0  0  0  0  0  0  0  0  0  0  0
    3.7378   -3.6695    0.0000 C   0  0  0  0  0  0  0  0  0  0  0  0
    4.2227   -4.3369    0.0000 C   0  0  0  0  0  0  0  0  0  0  0  0
    3.8871   -5.0906    0.0000 C   0  0  0  0  0  0  0  0  0  0  0  0
    3.0667   -5.1768    0.0000 C   0  0  0  0  0  0  0  0  0  0  0  0
    2.5817   -4.5094    0.0000 C   0  0  0  0  0  0  0  0  0  0  0  0
    1.2763   -3.9282    0.0000 O   0  0  0  0  0  0  0  0  0  0  0  0
    0.3020   -2.5070    0.0000 C   0  0  0  0  0  0  0  0  0  0  0  0
    0.0470   -1.7224    0.0000 C   0  0  0  0  0  0  0  0  0  0  0  0
   -0.7376   -1.4675    0.0000 C   0  0  0  0  0  0  0  0  0  0  0  0
   -1.3507   -2.0195    0.0000 C   0  0  0  0  0  0  0  0  0  0  0  0
   -2.1353   -1.7646    0.0000 C   0  0  0  0  0  0  0  0  0  0  0  0
   -2.3068   -0.9576    0.0000 C   0  0  0  0  0  0  0  0  0  0  0  0
   -3.0915   -0.7027    0.0000 Cl  0  0  0  0  0  0  0  0  0  0  0  0
   -1.6937   -0.4056    0.0000 C   0  0  0  0  0  0  0  0  0  0  0  0
   -0.9091   -0.6605    0.0000 C   0  0  0  0  0  0  0  0  0  0  0  0
   -0.1830   -3.1745    0.0000 C   0  0  0  0  0  0  0  0  0  0  0  0
    1.4289    0.0000    0.0000 C   0  0  0  0  0  0  0  0  0  0  0  0
    1.4289    0.8250    0.0000 C   0  0  0  0  0  0  0  0  0  0  0  0
    0.7145    1.2375    0.0000 C   0  0  0  0  0  0  0  0  0  0  0  0
   -0.0000    0.8250    0.0000 C   0  0  0  0  0  0  0  0  0  0  0  0
    0.7145    2.0625    0.0000 Cl  0  0  0  0  0  0  0  0  0  0  0  0
    2.1434   -0.4125    0.0000 Cl  0  0  0  0  0  0  0  0  0  0  0  0
  1  2  2  0  0  0  0
  2  3  1  0  0  0  0
  3  4  1  0  0  0  0
  4  5  2  0  0  0  0
  5  6  1  0  0  0  0
  6  7  1  0  0  0  0
  7  8  1  0  0  0  0
  8  9  1  0  0  0  0
  9 10  1  0  0  0  0
 10 11  1  0  0  0  0
 11 12  1  0  0  0  0
 12 13  1  0  0  0  0
  8 13  1  0  0  0  0
  6 14  2  0  0  0  0
  5 15  1  0  0  0  0
 15 16  2  0  0  0  0
  3 16  1  0  0  0  0
 16 17  1  0  0  0  0
 17 18  2  0  0  0  0
 18 19  1  0  0  0  0
 19 20  2  0  0  0  0
 20 21  1  0  0  0  0
 20 22  1  0  0  0  0
 22 23  2  0  0  0  0
 17 23  1  0  0  0  0
 15 24  1  0  0  0  0
  2 25  1  0  0  0  0
 25 26  2  0  0  0  0
 26 27  1  0  0  0  0
 27 28  2  0  0  0  0
  1 28  1  0  0  0  0
 27 29  1  0  0  0  0
 25 30  1  0  0  0  0
M  END
>  <Name>
Rimonabant

>  <CAS>
168273-06-1

>  <Formula>
C22H21Cl3N4O

>  <MolWt>
463.79 

>  <Bioactivity>
Rimonabant(SR141716) is a selective central cannabinoid (CB1) receptor inverse agonist with Ki of 1.8 nM.

>  <Pathways>
GPCR/G Protein

>  <Target>
Cannabinoid Receptor

>  <Receptor>
CB1 receptor

>  <Reference>
1. Leite C.E., et al.  Pharmacol Rep 61 217-224 (2009).

$$$$
148-72-1
  Mrv1561503291623562D          

 19 19  0  0  1  0            999 V2000
   -0.8989    0.6786    0.0000 C   0  0  1  0  0  0  0  0  0  0  0  0
   -0.2315    0.1937    0.0000 C   0  0  0  0  0  0  0  0  0  0  0  0
    0.5532    0.4486    0.0000 C   0  0  0  0  0  0  0  0  0  0  0  0
    1.1663   -0.1034    0.0000 C   0  0  0  0  0  0  0  0  0  0  0  0
    1.9732    0.0681    0.0000 C   0  0  0  0  0  0  0  0  0  0  0  0
    2.3857   -0.6463    0.0000 N   0  0  0  0  0  0  0  0  0  0  0  0
    1.8337   -1.2594    0.0000 C   0  0  0  0  0  0  0  0  0  0  0  0
    1.0800   -0.9239    0.0000 N   0  0  0  0  0  0  0  0  0  0  0  0
    0.3656   -1.3364    0.0000 C   0  0  0  0  0  0  0  0  0  0  0  0
   -0.4864   -0.5909    0.0000 C   0  0  0  0  0  0  0  0  0  0  0  0
   -1.3114   -0.5909    0.0000 O   0  0  0  0  0  0  0  0  0  0  0  0
   -1.5663    0.1937    0.0000 C   0  0  0  0  0  0  0  0  0  0  0  0
   -2.3510    0.4486    0.0000 O   0  0  0  0  0  0  0  0  0  0  0  0
   -0.8989    1.5036    0.0000 C   0  0  0  0  0  0  0  0  0  0  0  0
   -1.6134    1.9161    0.0000 C   0  0  0  0  0  0  0  0  0  0  0  0
    5.5089    0.7145    0.0000 O   0  0  0  0  0  0  0  0  0  0  0  0
    5.0964   -0.0000    0.0000 N   0  3  0  0  0  0  0  0  0  0  0  0
    5.5089   -0.7145    0.0000 O   0  5  0  0  0  0  0  0  0  0  0  0
    4.2714   -0.0000    0.0000 O   0  0  0  0  0  0  0  0  0  0  0  0
  1  2  1  0  0  0  0
  2  3  1  0  0  0  0
  3  4  1  0  0  0  0
  4  5  2  0  0  0  0
  5  6  1  0  0  0  0
  6  7  2  0  0  0  0
  7  8  1  0  0  0  0
  4  8  1  0  0  0  0
  8  9  1  0  0  0  0
  2 10  1  0  0  0  0
 10 11  1  0  0  0  0
 11 12  1  0  0  0  0
  1 12  1  0  0  0  0
 12 13  2  0  0  0  0
  1 14  1  1  0  0  0
 14 15  1  0  0  0  0
 16 17  2  0  0  0  0
 17 18  1  0  0  0  0
 17 19  1  0  0  0  0
M  CHG  2  17   1  18  -1
M  END
>  <Name>
Pilocarpine nitrate

>  <CAS>
148-72-1

>  <Formula>
C11H16N2O2.HNO3

>  <MolWt>
271.27 

>  <Bioactivity>
A slowly hydrolyzed muscarinic agonist with no nicotinic effects. Pilocarpine is used as a miotic and in the treatment of glaucoma. 

>  <Pathways>
Neuroscience

>  <Target>
AChR antagonist

>  <Receptor>
Muscarinic AChR

>  <Reference>
1. Sykes DA, et al. Mol Pharmacol. 2009 Sep;76(3):543-51.

$$$$
77883-43-3
  Mrv1561503291623562D          

 38 41  0  0  0  0            999 V2000
    0.0000   -0.8250    0.0000 C   0  0  0  0  0  0  0  0  0  0  0  0
    0.0000    0.0000    0.0000 S   0  0  0  0  0  0  0  0  0  0  0  0
    0.0000    0.8250    0.0000 O   0  0  0  0  0  0  0  0  0  0  0  0
    0.8250   -0.0000    0.0000 O   0  0  0  0  0  0  0  0  0  0  0  0
   -0.8250    0.0000    0.0000 O   0  0  0  0  0  0  0  0  0  0  0  0
    5.3256    1.5625    0.0000 C   0  0  0  0  0  0  0  0  0  0  0  0
    4.6111    1.1500    0.0000 C   0  0  0  0  0  0  0  0  0  0  0  0
    3.8966    1.5625    0.0000 O   0  0  0  0  0  0  0  0  0  0  0  0
    3.1821    1.1500    0.0000 C   0  0  0  0  0  0  0  0  0  0  0  0
    4.6111    0.3250    0.0000 C   0  0  0  0  0  0  0  0  0  0  0  0
    5.3256   -0.0875    0.0000 C   0  0  0  0  0  0  0  0  0  0  0  0
    6.0400    0.3250    0.0000 C   0  0  0  0  0  0  0  0  0  0  0  0
    6.0400    1.1500    0.0000 C   0  0  0  0  0  0  0  0  0  0  0  0
    6.7545    1.5625    0.0000 C   0  0  0  0  0  0  0  0  0  0  0  0
    7.4690    1.1500    0.0000 N   0  0  0  0  0  0  0  0  0  0  0  0
    7.4690    0.3250    0.0000 C   0  0  0  0  0  0  0  0  0  0  0  0
    6.7545   -0.0875    0.0000 N   0  0  0  0  0  0  0  0  0  0  0  0
    8.1834   -0.0875    0.0000 N   0  0  0  0  0  0  0  0  0  0  0  0
    8.8979    0.3250    0.0000 C   0  0  0  0  0  0  0  0  0  0  0  0
    9.6124   -0.0875    0.0000 C   0  0  0  0  0  0  0  0  0  0  0  0
    9.6124   -0.9125    0.0000 N   0  0  0  0  0  0  0  0  0  0  0  0
   10.3269   -1.3250    0.0000 C   0  0  0  0  0  0  0  0  0  0  0  0
   10.3269   -2.1500    0.0000 O   0  0  0  0  0  0  0  0  0  0  0  0
   11.0413   -0.9125    0.0000 C   0  0  0  0  0  0  0  0  0  0  0  0
   11.7558   -1.3250    0.0000 O   0  0  0  0  0  0  0  0  0  0  0  0
   12.4703   -0.9125    0.0000 C   0  0  0  0  0  0  0  0  0  0  0  0
   12.4703   -0.0875    0.0000 C   0  0  0  0  0  0  0  0  0  0  0  0
   11.7558    0.3250    0.0000 O   0  0  0  0  0  0  0  0  0  0  0  0
   11.0413   -0.0875    0.0000 C   0  0  0  0  0  0  0  0  0  0  0  0
   13.1847    0.3250    0.0000 C   0  0  0  0  0  0  0  0  0  0  0  0
   13.8992   -0.0875    0.0000 C   0  0  0  0  0  0  0  0  0  0  0  0
   13.8992   -0.9125    0.0000 C   0  0  0  0  0  0  0  0  0  0  0  0
   13.1847   -1.3250    0.0000 C   0  0  0  0  0  0  0  0  0  0  0  0
    8.8979   -1.3250    0.0000 C   0  0  0  0  0  0  0  0  0  0  0  0
    8.1834   -0.9125    0.0000 C   0  0  0  0  0  0  0  0  0  0  0  0
    6.7545    2.3875    0.0000 N   0  0  0  0  0  0  0  0  0  0  0  0
    3.8966   -0.0875    0.0000 O   0  0  0  0  0  0  0  0  0  0  0  0
    3.8966   -0.9125    0.0000 C   0  0  0  0  0  0  0  0  0  0  0  0
  1  2  1  0  0  0  0
  2  3  2  0  0  0  0
  2  4  2  0  0  0  0
  2  5  1  0  0  0  0
  6  7  2  0  0  0  0
  7  8  1  0  0  0  0
  8  9  1  0  0  0  0
  7 10  1  0  0  0  0
 10 11  2  0  0  0  0
 11 12  1  0  0  0  0
 12 13  2  0  0  0  0
  6 13  1  0  0  0  0
 13 14  1  0  0  0  0
 14 15  2  0  0  0  0
 15 16  1  0  0  0  0
 16 17  2  0  0  0  0
 12 17  1  0  0  0  0
 16 18  1  0  0  0  0
 18 19  1  0  0  0  0
 19 20  1  0  0  0  0
 20 21  1  0  0  0  0
 21 22  1  0  0  0  0
 22 23  2  0  0  0  0
 22 24  1  0  0  0  0
 24 25  1  0  0  0  0
 25 26  1  0  0  0  0
 26 27  2  0  0  0  0
 27 28  1  0  0  0  0
 28 29  1  0  0  0  0
 24 29  1  0  0  0  0
 27 30  1  0  0  0  0
 30 31  2  0  0  0  0
 31 32  1  0  0  0  0
 32 33  2  0  0  0  0
 26 33  1  0  0  0  0
 21 34  1  0  0  0  0
 34 35  1  0  0  0  0
 18 35  1  0  0  0  0
 14 36  1  0  0  0  0
 10 37  1  0  0  0  0
 37 38  1  0  0  0  0
M  END
>  <Name>
Doxazosin mesylate

>  <CAS>
77883-43-3

>  <Formula>
C24H29N5O8S

>  <MolWt>
547.58 

>  <Bioactivity>
Doxazosin Mesylate is a selective, long-lasting antagonist of ?1-adrenergic receptor. Doxazosin Mesylate has been reported to potentiate contraction response to 5-HT in a dose-dependent manner. Doxazosin significantly reduced alcohol drinking and increased water intake in adult male P rats.Studies has indicated that doxazosin could inhibit TNF-? expression in LPS-induced systemic inflammation model as well as reduce the MCP-1 production in LPS-induced pulmonary inflammation model. Additionally, Doxazosin decreased thickness of footpad in the delayed-type hypersensitivity mice model. Doxazosin had been reported to slightly reduce MCP-1 level in the peritoneal cavity of mice induced by thioglycollate. 

>  <Pathways>
GPCR/G Protein

>  <Target>
Adrenergic Receptor agonist

>  <Receptor>
Adrenergic Receptor

>  <Reference>
1. Garrison JB, et al. Cancer Res, 2006, 66(1), 464-472.

$$$$
51803-78-2
  Mrv1561503291623562D          

 21 22  0  0  0  0            999 V2000
    2.8579   -1.6500    0.0000 C   0  0  0  0  0  0  0  0  0  0  0  0
    2.8579   -2.4750    0.0000 C   0  0  0  0  0  0  0  0  0  0  0  0
    3.5724   -2.8875    0.0000 N   0  3  0  0  0  0  0  0  0  0  0  0
    3.5724   -3.7125    0.0000 O   0  0  0  0  0  0  0  0  0  0  0  0
    4.2868   -2.4750    0.0000 O   0  5  0  0  0  0  0  0  0  0  0  0
    2.1434   -2.8875    0.0000 C   0  0  0  0  0  0  0  0  0  0  0  0
    1.4289   -2.4750    0.0000 C   0  0  0  0  0  0  0  0  0  0  0  0
    1.4289   -1.6500    0.0000 C   0  0  0  0  0  0  0  0  0  0  0  0
    2.1434   -1.2375    0.0000 C   0  0  0  0  0  0  0  0  0  0  0  0
    2.1434   -0.4125    0.0000 O   0  0  0  0  0  0  0  0  0  0  0  0
    2.8579   -0.0000    0.0000 C   0  0  0  0  0  0  0  0  0  0  0  0
    2.8579    0.8250    0.0000 C   0  0  0  0  0  0  0  0  0  0  0  0
    3.5724    1.2375    0.0000 C   0  0  0  0  0  0  0  0  0  0  0  0
    4.2868    0.8250    0.0000 C   0  0  0  0  0  0  0  0  0  0  0  0
    4.2868   -0.0000    0.0000 C   0  0  0  0  0  0  0  0  0  0  0  0
    3.5724   -0.4125    0.0000 C   0  0  0  0  0  0  0  0  0  0  0  0
    0.7145   -1.2375    0.0000 N   0  0  0  0  0  0  0  0  0  0  0  0
    0.7145   -0.4125    0.0000 S   0  0  0  0  0  0  0  0  0  0  0  0
    1.5395   -0.4125    0.0000 C   0  0  0  0  0  0  0  0  0  0  0  0
   -0.1105   -0.4125    0.0000 O   0  0  0  0  0  0  0  0  0  0  0  0
    0.7145    0.4125    0.0000 O   0  0  0  0  0  0  0  0  0  0  0  0
  1  2  2  0  0  0  0
  2  3  1  0  0  0  0
  3  4  2  0  0  0  0
  3  5  1  0  0  0  0
  2  6  1  0  0  0  0
  6  7  2  0  0  0  0
  7  8  1  0  0  0  0
  8  9  2  0  0  0  0
  1  9  1  0  0  0  0
  9 10  1  0  0  0  0
 10 11  1  0  0  0  0
 11 12  2  0  0  0  0
 12 13  1  0  0  0  0
 13 14  2  0  0  0  0
 14 15  1  0  0  0  0
 15 16  2  0  0  0  0
 11 16  1  0  0  0  0
  8 17  1  0  0  0  0
 17 18  1  0  0  0  0
 18 19  1  0  0  0  0
 18 20  2  0  0  0  0
 18 21  2  0  0  0  0
M  CHG  2   3   1   5  -1
M  END
>  <Name>
Nimesulide

>  <CAS>
51803-78-2

>  <Formula>
C13H12N2O5S

>  <MolWt>
308.31 

>  <Bioactivity>
Nimesulide is a relatively COX-2 selective, non-steroidal anti-inflammatory drug (NSAID) with analgesic and antipyretic properties. Its approved indications are the treatment of acute pain, the symptomatic treatment of osteoarthritis and primary dysmenorrhoea in adolescents and adults above 12 years old. Due to concerns about the risk of hepatotoxicity, nimesulide has been withdrawn from market in many countries.


>  <Pathways>
Neuroscience

>  <Target>
COX inhibitor

>  <Receptor>
Prostaglandin G/H synthase

>  <Reference>
1. Rainsford KD. Curr Med Res Opin. 2006 Jun;22(6):1161-70. 

$$$$
54-36-4
  Mrv1561503291623562D          

 17 18  0  0  0  0            999 V2000
    2.8579   -2.4750    0.0000 C   0  0  0  0  0  0  0  0  0  0  0  0
    2.8579   -3.3000    0.0000 C   0  0  0  0  0  0  0  0  0  0  0  0
    2.1434   -3.7125    0.0000 C   0  0  0  0  0  0  0  0  0  0  0  0
    1.4289   -3.3000    0.0000 N   0  0  0  0  0  0  0  0  0  0  0  0
    1.4289   -2.4750    0.0000 C   0  0  0  0  0  0  0  0  0  0  0  0
    2.1434   -2.0625    0.0000 C   0  0  0  0  0  0  0  0  0  0  0  0
    2.1434   -1.2375    0.0000 C   0  0  0  0  0  0  0  0  0  0  0  0
    2.8579   -0.8250    0.0000 C   0  0  0  0  0  0  0  0  0  0  0  0
    3.5724   -0.4125    0.0000 C   0  0  0  0  0  0  0  0  0  0  0  0
    3.5724    0.4125    0.0000 C   0  0  0  0  0  0  0  0  0  0  0  0
    4.2868    0.8250    0.0000 N   0  0  0  0  0  0  0  0  0  0  0  0
    5.0013    0.4125    0.0000 C   0  0  0  0  0  0  0  0  0  0  0  0
    5.0013   -0.4125    0.0000 C   0  0  0  0  0  0  0  0  0  0  0  0
    4.2868   -0.8250    0.0000 C   0  0  0  0  0  0  0  0  0  0  0  0
    3.2704   -1.5395    0.0000 C   0  0  0  0  0  0  0  0  0  0  0  0
    2.4454   -0.1105    0.0000 C   0  0  0  0  0  0  0  0  0  0  0  0
    1.4289   -0.8250    0.0000 O   0  0  0  0  0  0  0  0  0  0  0  0
  1  2  2  0  0  0  0
  2  3  1  0  0  0  0
  3  4  2  0  0  0  0
  4  5  1  0  0  0  0
  5  6  2  0  0  0  0
  1  6  1  0  0  0  0
  6  7  1  0  0  0  0
  7  8  1  0  0  0  0
  8  9  1  0  0  0  0
  9 10  2  0  0  0  0
 10 11  1  0  0  0  0
 11 12  2  0  0  0  0
 12 13  1  0  0  0  0
 13 14  2  0  0  0  0
  9 14  1  0  0  0  0
  8 15  1  0  0  0  0
  8 16  1  0  0  0  0
  7 17  2  0  0  0  0
M  END
>  <Name>
Metyrapone

>  <CAS>
54-36-4

>  <Formula>
C14H14N2O

>  <MolWt>
226.27 

>  <Bioactivity>
An inhibitor of the enzyme steroid 11-beta-monooxygenase. It is used as a test of the feedback hypothalamic-pituitary mechanism in the diagnosis of cushing syndrome. 

>  <Pathways>
Enzyme

>  <Target>
Camphor 5-monooxygenase

>  <Receptor>
Camphor 5-monooxygenase

>  <Reference>
1. Shiro Y, et al. Biochemistry. 1995 Jul 18;34(28):9052-8. 

$$$$
73-31-4
  Mrv1561503291623562D          

 17 18  0  0  0  0            999 V2000
    0.9533   -3.0862    0.0000 C   0  0  0  0  0  0  0  0  0  0  0  0
    0.6984   -3.8709    0.0000 C   0  0  0  0  0  0  0  0  0  0  0  0
    1.2504   -4.4839    0.0000 O   0  0  0  0  0  0  0  0  0  0  0  0
    0.9955   -5.2686    0.0000 C   0  0  0  0  0  0  0  0  0  0  0  0
   -0.1086   -4.0424    0.0000 C   0  0  0  0  0  0  0  0  0  0  0  0
   -0.6606   -3.4293    0.0000 C   0  0  0  0  0  0  0  0  0  0  0  0
   -0.4057   -2.6447    0.0000 C   0  0  0  0  0  0  0  0  0  0  0  0
    0.4013   -2.4731    0.0000 C   0  0  0  0  0  0  0  0  0  0  0  0
    0.4875   -1.6527    0.0000 C   0  0  0  0  0  0  0  0  0  0  0  0
   -0.2661   -1.3171    0.0000 C   0  0  0  0  0  0  0  0  0  0  0  0
   -0.8182   -1.9302    0.0000 N   0  0  0  0  0  0  0  0  0  0  0  0
    1.2020   -1.2402    0.0000 C   0  0  0  0  0  0  0  0  0  0  0  0
    1.9165   -1.6527    0.0000 C   0  0  0  0  0  0  0  0  0  0  0  0
    2.6309   -1.2402    0.0000 N   0  0  0  0  0  0  0  0  0  0  0  0
    3.3454   -1.6527    0.0000 C   0  0  0  0  0  0  0  0  0  0  0  0
    4.0599   -1.2402    0.0000 C   0  0  0  0  0  0  0  0  0  0  0  0
    3.3454   -2.4777    0.0000 O   0  0  0  0  0  0  0  0  0  0  0  0
  1  2  2  0  0  0  0
  2  3  1  0  0  0  0
  3  4  1  0  0  0  0
  2  5  1  0  0  0  0
  5  6  2  0  0  0  0
  6  7  1  0  0  0  0
  7  8  2  0  0  0  0
  1  8  1  0  0  0  0
  8  9  1  0  0  0  0
  9 10  2  0  0  0  0
 10 11  1  0  0  0  0
  7 11  1  0  0  0  0
  9 12  1  0  0  0  0
 12 13  1  0  0  0  0
 13 14  1  0  0  0  0
 14 15  1  0  0  0  0
 15 16  1  0  0  0  0
 15 17  2  0  0  0  0
M  END
>  <Name>
Melatonine

>  <CAS>
73-31-4

>  <Formula>
C13H16N2O2

>  <MolWt>
232.28 

>  <Bioactivity>
Melatonin is a MT receptor agonist, used as a dietary supplement.

>  <Pathways>
Endocrinology/ Hormones

>  <Target>
Melatonin receptor agonist;MPO inhibitor;Estrogen Receptor antagonist;ROR agonist, Calmodulin

>  <Receptor>
melatonin receptor;MPO;Estrogen receptor;ROR-beta, Calmodulin

>  <Reference>
1. Reiter RJ, et al. J Biomed Sci, 2000, 7(6), 444-458.

$$$$
T1485
  Mrv1561503291623562D          

 33 35  0  0  1  0            999 V2000
    0.7145   -6.1875    0.0000 C   0  0  1  0  0  0  0  0  0  0  0  0
   -0.0000   -6.6000    0.0000 N   0  0  0  0  0  0  0  0  0  0  0  0
   -0.7145   -6.1875    0.0000 C   0  0  0  0  0  0  0  0  0  0  0  0
   -1.4289   -6.6000    0.0000 C   0  0  0  0  0  0  0  0  0  0  0  0
   -1.4289   -7.4250    0.0000 C   0  0  0  0  0  0  0  0  0  0  0  0
   -2.1434   -7.8375    0.0000 C   0  0  0  0  0  0  0  0  0  0  0  0
   -2.8579   -7.4250    0.0000 C   0  0  0  0  0  0  0  0  0  0  0  0
   -3.5724   -7.8375    0.0000 N   0  0  0  0  0  0  0  0  0  0  0  0
   -4.2868   -7.4250    0.0000 C   0  0  0  0  0  0  0  0  0  0  0  0
   -5.0013   -7.8375    0.0000 C   0  0  0  0  0  0  0  0  0  0  0  0
   -5.0013   -8.6625    0.0000 N   0  0  0  0  0  0  0  0  0  0  0  0
   -5.7158   -9.0750    0.0000 C   0  0  0  0  0  0  0  0  0  0  0  0
   -5.7158   -9.9000    0.0000 C   0  0  0  0  0  0  0  0  0  0  0  0
   -6.4302  -10.3125    0.0000 N   0  0  0  0  0  0  0  0  0  0  0  0
   -7.1447   -9.9000    0.0000 C   0  0  0  0  0  0  0  0  0  0  0  0
   -7.1447   -9.0750    0.0000 N   0  0  0  0  0  0  0  0  0  0  0  0
   -6.4302   -8.6625    0.0000 C   0  0  0  0  0  0  0  0  0  0  0  0
   -6.4302   -7.8375    0.0000 N   0  0  0  0  0  0  0  0  0  0  0  0
   -5.7158   -7.4250    0.0000 C   0  0  0  0  0  0  0  0  0  0  0  0
   -7.8592  -10.3125    0.0000 N   0  0  0  0  0  0  0  0  0  0  0  0
   -5.0013  -10.3125    0.0000 N   0  0  0  0  0  0  0  0  0  0  0  0
   -3.5724   -8.6625    0.0000 C   0  0  0  0  0  0  0  0  0  0  0  0
   -2.8579   -6.6000    0.0000 C   0  0  0  0  0  0  0  0  0  0  0  0
   -2.1434   -6.1875    0.0000 C   0  0  0  0  0  0  0  0  0  0  0  0
   -0.7145   -5.3625    0.0000 O   0  0  0  0  0  0  0  0  0  0  0  0
    1.4289   -6.6000    0.0000 C   0  0  0  0  0  0  0  0  0  0  0  0
    2.1434   -6.1875    0.0000 C   0  0  0  0  0  0  0  0  0  0  0  0
    2.8579   -6.6000    0.0000 C   0  0  0  0  0  0  0  0  0  0  0  0
    3.5724   -6.1875    0.0000 O   0  0  0  0  0  0  0  0  0  0  0  0
    2.8579   -7.4250    0.0000 O   0  0  0  0  0  0  0  0  0  0  0  0
    0.7145   -5.3625    0.0000 C   0  0  0  0  0  0  0  0  0  0  0  0
    1.4289   -4.9500    0.0000 O   0  0  0  0  0  0  0  0  0  0  0  0
   -0.0000   -4.9500    0.0000 O   0  0  0  0  0  0  0  0  0  0  0  0
  1  2  1  6  0  0  0
  2  3  1  0  0  0  0
  3  4  1  0  0  0  0
  4  5  2  0  0  0  0
  5  6  1  0  0  0  0
  6  7  2  0  0  0  0
  7  8  1  0  0  0  0
  8  9  1  0  0  0  0
  9 10  1  0  0  0  0
 10 11  2  0  0  0  0
 11 12  1  0  0  0  0
 12 13  2  0  0  0  0
 13 14  1  0  0  0  0
 14 15  2  0  0  0  0
 15 16  1  0  0  0  0
 16 17  2  0  0  0  0
 12 17  1  0  0  0  0
 17 18  1  0  0  0  0
 18 19  2  0  0  0  0
 10 19  1  0  0  0  0
 15 20  1  0  0  0  0
 13 21  1  0  0  0  0
  8 22  1  0  0  0  0
  7 23  1  0  0  0  0
 23 24  2  0  0  0  0
  4 24  1  0  0  0  0
  3 25  2  0  0  0  0
  1 26  1  0  0  0  0
 26 27  1  0  0  0  0
 27 28  1  0  0  0  0
 28 29  1  0  0  0  0
 28 30  2  0  0  0  0
  1 31  1  0  0  0  0
 31 32  1  0  0  0  0
 31 33  2  0  0  0  0
M  END
>  <Name>
Methotrexate

>  <CAS>
59-05-2

>  <Formula>
C20H22N8O5.2H2O

>  <MolWt>
454.44 

>  <Bioactivity>
Methotrexate, a folate antagonist, is a potent anti-inflammatory agent when used weekly in low concentrations, the anti-phlogistic action of which is due to increased adenosine release at inflamed sites. Studies have demonstrated that methotrexate polyglutamates are active inhibitors of several enzymatic reactions, including dihydrofolate reductase.

>  <Pathways>
Enzyme

>  <Target>
DHFR inhibitor

>  <Receptor>
DHFR

>  <Reference>
1. Al-Rashood ST, et al. Bioorg Med Chem. 2006 Dec 15;14(24):8608-21. 

$$$$
T1013
  Mrv1561503291623562D          

 40 42  0  0  1  0            999 V2000
   -0.0000   -1.6500    0.0000 C   0  0  1  0  0  0  0  0  0  0  0  0
   -0.0000   -2.4750    0.0000 C   0  0  1  0  0  0  0  0  0  0  0  0
   -0.7145   -2.8875    0.0000 C   0  0  0  0  0  0  0  0  0  0  0  0
   -1.4289   -2.4750    0.0000 C   0  0  2  0  0  0  0  0  0  0  0  0
   -2.1434   -2.8875    0.0000 N   0  0  0  0  0  0  0  0  0  0  0  0
   -1.4289   -1.6500    0.0000 C   0  0  2  0  0  0  0  0  0  0  0  0
   -0.7145   -1.2375    0.0000 C   0  0  2  0  0  0  0  0  0  0  0  0
   -0.7145   -0.4125    0.0000 O   0  0  0  0  0  0  0  0  0  0  0  0
   -2.1434   -1.2375    0.0000 O   0  0  0  0  0  0  0  0  0  0  0  0
   -2.8579   -1.6500    0.0000 C   0  0  1  0  0  0  0  0  0  0  0  0
   -2.8579   -2.4750    0.0000 O   0  0  0  0  0  0  0  0  0  0  0  0
   -3.5724   -2.8875    0.0000 C   0  0  1  0  0  0  0  0  0  0  0  0
   -4.2868   -2.4750    0.0000 C   0  0  1  0  0  0  0  0  0  0  0  0
   -5.0013   -2.8875    0.0000 O   0  0  0  0  0  0  0  0  0  0  0  0
   -4.2868   -1.6500    0.0000 C   0  0  1  0  0  0  0  0  0  0  0  0
   -3.5724   -1.2375    0.0000 C   0  0  1  0  0  0  0  0  0  0  0  0
   -3.5724   -0.4125    0.0000 O   0  0  0  0  0  0  0  0  0  0  0  0
   -5.0013   -1.2375    0.0000 O   0  0  0  0  0  0  0  0  0  0  0  0
   -3.5724   -3.7125    0.0000 C   0  0  0  0  0  0  0  0  0  0  0  0
   -4.2868   -4.1250    0.0000 N   0  0  0  0  0  0  0  0  0  0  0  0
    0.7145   -2.8875    0.0000 N   0  0  0  0  0  0  0  0  0  0  0  0
    1.4289   -2.4750    0.0000 C   0  0  0  0  0  0  0  0  0  0  0  0
    2.1434   -2.8875    0.0000 C   0  0  2  0  0  0  0  0  0  0  0  0
    2.8579   -2.4750    0.0000 C   0  0  0  0  0  0  0  0  0  0  0  0
    3.5724   -2.8875    0.0000 C   0  0  0  0  0  0  0  0  0  0  0  0
    3.5724   -3.7125    0.0000 N   0  0  0  0  0  0  0  0  0  0  0  0
    2.1434   -3.7125    0.0000 O   0  0  0  0  0  0  0  0  0  0  0  0
    1.4289   -1.6500    0.0000 O   0  0  0  0  0  0  0  0  0  0  0  0
    0.7145   -1.2375    0.0000 O   0  0  0  0  0  0  0  0  0  0  0  0
    0.7145   -0.4125    0.0000 C   0  0  1  0  0  0  0  0  0  0  0  0
   -0.0000   -0.0000    0.0000 O   0  0  0  0  0  0  0  0  0  0  0  0
   -0.0000    0.8250    0.0000 C   0  0  1  0  0  0  0  0  0  0  0  0
    0.7145    1.2375    0.0000 C   0  0  1  0  0  0  0  0  0  0  0  0
    0.7145    2.0625    0.0000 O   0  0  0  0  0  0  0  0  0  0  0  0
    1.4289    0.8250    0.0000 C   0  0  1  0  0  0  0  0  0  0  0  0
    1.4289    0.0000    0.0000 C   0  0  1  0  0  0  0  0  0  0  0  0
    2.1434   -0.4125    0.0000 O   0  0  0  0  0  0  0  0  0  0  0  0
    2.1434    1.2375    0.0000 N   0  0  0  0  0  0  0  0  0  0  0  0
   -0.7145    1.2375    0.0000 C   0  0  0  0  0  0  0  0  0  0  0  0
   -0.7145    2.0625    0.0000 O   0  0  0  0  0  0  0  0  0  0  0  0
  1  2  1  0  0  0  0
  2  3  1  0  0  0  0
  3  4  1  0  0  0  0
  4  5  1  6  0  0  0
  4  6  1  0  0  0  0
  6  7  1  0  0  0  0
  1  7  1  0  0  0  0
  7  8  1  6  0  0  0
  6  9  1  1  0  0  0
 10  9  1  1  0  0  0
 10 11  1  0  0  0  0
 11 12  1  0  0  0  0
 12 13  1  0  0  0  0
 13 14  1  1  0  0  0
 13 15  1  0  0  0  0
 15 16  1  0  0  0  0
 10 16  1  0  0  0  0
 16 17  1  1  0  0  0
 15 18  1  6  0  0  0
 12 19  1  6  0  0  0
 19 20  1  0  0  0  0
  2 21  1  6  0  0  0
 21 22  1  0  0  0  0
 22 23  1  0  0  0  0
 23 24  1  0  0  0  0
 24 25  1  0  0  0  0
 25 26  1  0  0  0  0
 23 27  1  6  0  0  0
 22 28  2  0  0  0  0
  1 29  1  1  0  0  0
 30 29  1  1  0  0  0
 30 31  1  0  0  0  0
 31 32  1  0  0  0  0
 32 33  1  0  0  0  0
 33 34  1  1  0  0  0
 33 35  1  0  0  0  0
 35 36  1  0  0  0  0
 30 36  1  0  0  0  0
 36 37  1  1  0  0  0
 35 38  1  6  0  0  0
 32 39  1  6  0  0  0
 39 40  1  0  0  0  0
M  END
>  <Name>
Amikacin

>  <CAS>
37517-28-5

>  <Formula>
C22H43N5O13

>  <MolWt>
585.60 

>  <Bioactivity>
A broad-spectrum antibiotic derived from KANAMYCIN. It is reno- and oto-toxic like the other aminoglycoside antibiotics.

>  <Pathways>
Microbiology & Virology

>  <Target>
Antibiotic

>  <Receptor>
30S ribosomal protein

>  <Reference>
1. Tolmasky ME. Front Biosci. 2000 Jan 1;5:D20-9.

$$$$
T1492
  Mrv1561503291623562D          

 33 35  0  0  0  0            999 V2000
    0.0000   -0.8250    0.0000 C   0  0  0  0  0  0  0  0  0  0  0  0
    0.0000    0.0000    0.0000 S   0  0  0  0  0  0  0  0  0  0  0  0
    0.0000    0.8250    0.0000 O   0  0  0  0  0  0  0  0  0  0  0  0
    0.8250   -0.0000    0.0000 O   0  0  0  0  0  0  0  0  0  0  0  0
   -0.8250    0.0000    0.0000 O   0  0  0  0  0  0  0  0  0  0  0  0
    7.0728    1.4370    0.0000 C   0  0  0  0  0  0  0  0  0  0  0  0
    6.3584    1.0245    0.0000 C   0  0  0  0  0  0  0  0  0  0  0  0
    5.6439    1.4370    0.0000 F   0  0  0  0  0  0  0  0  0  0  0  0
    6.3584    0.1995    0.0000 C   0  0  0  0  0  0  0  0  0  0  0  0
    7.0728   -0.2130    0.0000 N   0  0  0  0  0  0  0  0  0  0  0  0
    7.7873    0.1995    0.0000 C   0  0  0  0  0  0  0  0  0  0  0  0
    7.7873    1.0245    0.0000 C   0  0  0  0  0  0  0  0  0  0  0  0
    8.5018    1.4370    0.0000 C   0  0  0  0  0  0  0  0  0  0  0  0
    8.5018    2.2620    0.0000 O   0  0  0  0  0  0  0  0  0  0  0  0
    9.2162    1.0245    0.0000 C   0  0  0  0  0  0  0  0  0  0  0  0
    9.2162    0.1995    0.0000 C   0  0  0  0  0  0  0  0  0  0  0  0
    8.5018   -0.2130    0.0000 N   0  0  0  0  0  0  0  0  0  0  0  0
    8.5018   -1.0380    0.0000 C   0  0  0  0  0  0  0  0  0  0  0  0
    8.9143   -1.7525    0.0000 C   0  0  0  0  0  0  0  0  0  0  0  0
    8.0893   -1.7525    0.0000 C   0  0  0  0  0  0  0  0  0  0  0  0
    9.9307    1.4370    0.0000 C   0  0  0  0  0  0  0  0  0  0  0  0
   10.6452    1.0245    0.0000 O   0  0  0  0  0  0  0  0  0  0  0  0
    9.9307    2.2620    0.0000 O   0  0  0  0  0  0  0  0  0  0  0  0
    5.6439   -0.2130    0.0000 N   0  0  0  0  0  0  0  0  0  0  0  0
    5.5577   -1.0335    0.0000 C   0  0  0  0  0  0  0  0  0  0  0  0
    4.7507   -1.2050    0.0000 C   0  0  0  0  0  0  0  0  0  0  0  0
    4.4151   -1.9587    0.0000 N   0  0  0  0  0  0  0  0  0  0  0  0
    4.9000   -2.6261    0.0000 O   0  0  0  0  0  0  0  0  0  0  0  0
    5.7205   -2.5399    0.0000 C   0  0  0  0  0  0  0  0  0  0  0  0
    4.3382   -0.4906    0.0000 C   0  0  0  0  0  0  0  0  0  0  0  0
    4.8902    0.1225    0.0000 C   0  0  0  0  0  0  0  0  0  0  0  0
    3.5177   -0.4043    0.0000 C   0  0  0  0  0  0  0  0  0  0  0  0
    3.1821    0.3494    0.0000 N   0  0  0  0  0  0  0  0  0  0  0  0
  1  2  1  0  0  0  0
  2  3  2  0  0  0  0
  2  4  2  0  0  0  0
  2  5  1  0  0  0  0
  6  7  2  0  0  0  0
  7  8  1  0  0  0  0
  7  9  1  0  0  0  0
  9 10  2  0  0  0  0
 10 11  1  0  0  0  0
 11 12  2  0  0  0  0
  6 12  1  0  0  0  0
 12 13  1  0  0  0  0
 13 14  2  0  0  0  0
 13 15  1  0  0  0  0
 15 16  2  0  0  0  0
 16 17  1  0  0  0  0
 11 17  1  0  0  0  0
 17 18  1  0  0  0  0
 18 19  1  0  0  0  0
 19 20  1  0  0  0  0
 18 20  1  0  0  0  0
 15 21  1  0  0  0  0
 21 22  2  0  0  0  0
 21 23  1  0  0  0  0
  9 24  1  0  0  0  0
 24 25  1  0  0  0  0
 25 26  1  0  0  0  0
 26 27  2  0  0  0  0
 27 28  1  0  0  0  0
 28 29  1  0  0  0  0
 26 30  1  0  0  0  0
 30 31  1  0  0  0  0
 24 31  1  0  0  0  0
 30 32  1  0  0  0  0
 32 33  1  0  0  0  0
M  END
>  <Name>
Gemifioxacin mesylate

>  <CAS>
210353-53-0

>  <Formula>
C19H24FN5O7S

>  <MolWt>
485.49 

>  <Bioactivity>
Gemifloxacin is an oral broad-spectrum quinolone antibacterial agent used in the treatment of acute bacterial exacerbation of chronic bronchitis and mild-to-moderate pneumonia. Gemifloxacin acts by inhibiting DNA synthesis through the inhibition of both DNA gyrase and topoisomerase IV, which are essential for bacterial growth.

>  <Pathways>
DNA Damage/DNA Repair

>  <Target>
Topoisomerase inhibitor; DNA gyrase inhibitor

>  <Receptor>
Topoisomerase II ;DNA gyrase

>  <Reference>
1. Ruiz J, et al. Int J Antimicrob Agents. 2003 Jul;22(1):73-6. 

$$$$
T0827
  Mrv1561503291623562D          

 37 39  0  0  1  0            999 V2000
   -0.2264   -2.9361    0.0000 C   0  0  0  0  0  0  0  0  0  0  0  0
   -0.1673   -3.7590    0.0000 S   0  0  0  0  0  0  0  0  0  0  0  0
   -0.8504   -4.2216    0.0000 C   0  0  0  0  0  0  0  0  0  0  0  0
   -1.5926   -3.8613    0.0000 C   0  0  0  0  0  0  0  0  0  0  0  0
   -1.6517   -3.0384    0.0000 C   0  0  0  0  0  0  0  0  0  0  0  0
   -0.9686   -2.5758    0.0000 N   0  0  0  0  0  0  0  0  0  0  0  0
   -0.6083   -1.8336    0.0000 C   0  0  0  0  0  0  0  0  0  0  0  0
   -0.8783   -1.0541    0.0000 O   0  0  0  0  0  0  0  0  0  0  0  0
    0.1339   -2.1939    0.0000 C   0  0  0  0  0  0  0  0  0  0  0  0
    0.9134   -1.9239    0.0000 N   0  0  0  0  0  0  0  0  0  0  0  0
    1.0694   -1.1137    0.0000 C   0  0  0  0  0  0  0  0  0  0  0  0
    0.4457   -0.5736    0.0000 O   0  0  0  0  0  0  0  0  0  0  0  0
    1.8489   -0.8437    0.0000 C   0  0  0  0  0  0  0  0  0  0  0  0
    2.4725   -1.3838    0.0000 S   0  0  0  0  0  0  0  0  0  0  0  0
    3.0962   -1.9239    0.0000 O   0  5  0  0  0  0  0  0  0  0  0  0
    1.9325   -2.0074    0.0000 O   0  0  0  0  0  0  0  0  0  0  0  0
    3.0126   -0.7601    0.0000 O   0  0  0  0  0  0  0  0  0  0  0  0
    2.0048   -0.0335    0.0000 C   0  0  0  0  0  0  0  0  0  0  0  0
    1.3812    0.5065    0.0000 C   0  0  0  0  0  0  0  0  0  0  0  0
    1.5371    1.3167    0.0000 C   0  0  0  0  0  0  0  0  0  0  0  0
    2.3166    1.5867    0.0000 C   0  0  0  0  0  0  0  0  0  0  0  0
    2.9403    1.0466    0.0000 C   0  0  0  0  0  0  0  0  0  0  0  0
    2.7844    0.2365    0.0000 C   0  0  0  0  0  0  0  0  0  0  0  0
   -2.3938   -2.6781    0.0000 C   0  0  0  0  0  0  0  0  0  0  0  0
   -2.4529   -1.8553    0.0000 O   0  5  0  0  0  0  0  0  0  0  0  0
   -3.0769   -3.1407    0.0000 O   0  0  0  0  0  0  0  0  0  0  0  0
   -2.2757   -4.3239    0.0000 C   0  0  0  0  0  0  0  0  0  0  0  0
   -2.2166   -5.1468    0.0000 N   0  3  0  0  0  0  0  0  0  0  0  0
   -1.4744   -5.5071    0.0000 C   0  0  0  0  0  0  0  0  0  0  0  0
   -1.4153   -6.3299    0.0000 C   0  0  0  0  0  0  0  0  0  0  0  0
   -2.0984   -6.7925    0.0000 C   0  0  0  0  0  0  0  0  0  0  0  0
   -2.8406   -6.4323    0.0000 C   0  0  0  0  0  0  0  0  0  0  0  0
   -2.8997   -5.6094    0.0000 C   0  0  0  0  0  0  0  0  0  0  0  0
   -2.0394   -7.6154    0.0000 C   0  0  0  0  0  0  0  0  0  0  0  0
   -1.2972   -7.9757    0.0000 O   0  0  0  0  0  0  0  0  0  0  0  0
   -2.7224   -8.0780    0.0000 N   0  0  0  0  0  0  0  0  0  0  0  0
    3.7198   -2.4639    0.0000 Na  0  3  0  0  0  0  0  0  0  0  0  0
  1  2  1  0  0  0  0
  2  3  1  0  0  0  0
  3  4  1  0  0  0  0
  4  5  2  0  0  0  0
  5  6  1  0  0  0  0
  1  6  1  0  0  0  0
  6  7  1  0  0  0  0
  7  8  2  0  0  0  0
  7  9  1  0  0  0  0
  1  9  1  0  0  0  0
  9 10  1  0  0  0  0
 10 11  1  0  0  0  0
 11 12  2  0  0  0  0
 11 13  1  0  0  0  0
 13 14  1  0  0  0  0
 14 15  1  0  0  0  0
 14 16  2  0  0  0  0
 14 17  2  0  0  0  0
 13 18  1  0  0  0  0
 18 19  2  0  0  0  0
 19 20  1  0  0  0  0
 20 21  2  0  0  0  0
 21 22  1  0  0  0  0
 22 23  2  0  0  0  0
 18 23  1  0  0  0  0
  5 24  1  0  0  0  0
 24 25  1  0  0  0  0
 24 26  2  0  0  0  0
  4 27  1  0  0  0  0
 27 28  1  0  0  0  0
 28 29  2  0  0  0  0
 29 30  1  0  0  0  0
 30 31  2  0  0  0  0
 31 32  1  0  0  0  0
 32 33  2  0  0  0  0
 28 33  1  0  0  0  0
 31 34  1  0  0  0  0
 34 35  2  0  0  0  0
 34 36  1  0  0  0  0
M  CHG  4  15  -1  25  -1  28   1  37   1
M  END
>  <Name>
Cefsulodine sodium

>  <CAS>
52152-93-9

>  <Formula>
C22H19N4NaO8S2

>  <MolWt>
554.52 

>  <Bioactivity>
A pyridinium-substituted semisynthetic, broad-spectrum antibacterial used especially for Pseudomonas infections in debilitated patients.

>  <Pathways>
Microbiology & Virology

>  <Target>
Antibiotic

>  <Receptor>
Others

>  <Reference>
1. Sarkar SK, et al. PLoS One. 2012;7(11):e48598. 

$$$$
83150-76-9
  Mrv1561503291623562D          

 71 75  0  0  0  0            999 V2000
   -2.0240   -0.0616    0.0000 C   0  0  0  0  0  0  0  0  0  0  0  0
   -1.5391    0.6058    0.0000 C   0  0  0  0  0  0  0  0  0  0  0  0
   -0.7545    0.3509    0.0000 C   0  0  0  0  0  0  0  0  0  0  0  0
   -0.7545   -0.4741    0.0000 C   0  0  0  0  0  0  0  0  0  0  0  0
   -0.0400   -0.8866    0.0000 C   0  0  0  0  0  0  0  0  0  0  0  0
    0.6745   -0.4741    0.0000 C   0  0  0  0  0  0  0  0  0  0  0  0
    0.6745    0.3509    0.0000 C   0  0  0  0  0  0  0  0  0  0  0  0
   -0.0400    0.7634    0.0000 C   0  0  0  0  0  0  0  0  0  0  0  0
   -1.5391   -0.7290    0.0000 N   0  0  0  0  0  0  0  0  0  0  0  0
   -1.7940    1.3905    0.0000 C   0  0  0  0  0  0  0  0  0  0  0  0
   -2.6010    1.5620    0.0000 C   0  0  0  0  0  0  0  0  0  0  0  0
   -2.3461    0.7774    0.0000 N   0  0  0  0  0  0  0  0  0  0  0  0
   -2.8981    0.1643    0.0000 C   0  0  0  0  0  0  0  0  0  0  0  0
   -3.7051    0.3358    0.0000 C   0  0  0  0  0  0  0  0  0  0  0  0
   -4.2571   -0.2773    0.0000 C   0  0  0  0  0  0  0  0  0  0  0  0
   -4.0022   -1.0619    0.0000 C   0  0  0  0  0  0  0  0  0  0  0  0
   -3.1952   -1.2335    0.0000 C   0  0  0  0  0  0  0  0  0  0  0  0
   -2.9403   -2.0181    0.0000 C   0  0  0  0  0  0  0  0  0  0  0  0
   -3.4923   -2.6312    0.0000 C   0  0  0  0  0  0  0  0  0  0  0  0
   -4.2993   -2.4596    0.0000 C   0  0  0  0  0  0  0  0  0  0  0  0
   -4.5542   -1.6750    0.0000 C   0  0  0  0  0  0  0  0  0  0  0  0
   -3.9600    1.1204    0.0000 N   0  0  0  0  0  0  0  0  0  0  0  0
   -4.7670    1.2919    0.0000 C   0  0  0  0  0  0  0  0  0  0  0  0
   -5.0219    2.0766    0.0000 C   0  0  0  0  0  0  0  0  0  0  0  0
   -5.5740    1.4635    0.0000 N   0  0  0  0  0  0  0  0  0  0  0  0
   -6.3809    1.6350    0.0000 C   0  0  0  0  0  0  0  0  0  0  0  0
   -6.9330    1.0219    0.0000 C   0  0  0  0  0  0  0  0  0  0  0  0
   -7.7399    1.1934    0.0000 C   0  0  0  0  0  0  0  0  0  0  0  0
   -8.2920    0.5803    0.0000 C   0  0  0  0  0  0  0  0  0  0  0  0
   -8.0370   -0.2043    0.0000 C   0  0  0  0  0  0  0  0  0  0  0  0
   -8.5891   -0.8174    0.0000 C   0  0  0  0  0  0  0  0  0  0  0  0
   -9.3960   -0.6459    0.0000 C   0  0  0  0  0  0  0  0  0  0  0  0
   -9.6510    0.1388    0.0000 C   0  0  0  0  0  0  0  0  0  0  0  0
   -9.0989    0.7519    0.0000 C   0  0  0  0  0  0  0  0  0  0  0  0
   -6.6780    0.2373    0.0000 N   0  0  0  0  0  0  0  0  0  0  0  0
   -6.6359    2.4196    0.0000 O   0  0  0  0  0  0  0  0  0  0  0  0
   -5.8289    2.2481    0.0000 C   0  0  0  0  0  0  0  0  0  0  0  0
   -6.0838    3.0327    0.0000 S   0  0  0  0  0  0  0  0  0  0  0  0
   -6.8908    3.2042    0.0000 S   0  0  0  0  0  0  0  0  0  0  0  0
   -7.1457    3.9889    0.0000 C   0  0  0  0  0  0  0  0  0  0  0  0
   -6.5937    4.6020    0.0000 C   0  0  0  0  0  0  0  0  0  0  0  0
   -5.7867    4.4304    0.0000 N   0  0  0  0  0  0  0  0  0  0  0  0
   -5.2347    5.0435    0.0000 C   0  0  0  0  0  0  0  0  0  0  0  0
   -4.4277    4.8720    0.0000 C   0  0  0  0  0  0  0  0  0  0  0  0
   -4.1728    4.0874    0.0000 N   0  0  0  0  0  0  0  0  0  0  0  0
   -3.3658    3.9158    0.0000 C   0  0  0  0  0  0  0  0  0  0  0  0
   -3.1109    3.1312    0.0000 C   0  0  0  0  0  0  0  0  0  0  0  0
   -2.3039    2.9597    0.0000 N   0  0  0  0  0  0  0  0  0  0  0  0
   -2.0490    2.1751    0.0000 C   0  0  0  0  0  0  0  0  0  0  0  0
   -1.2420    2.0035    0.0000 O   0  0  0  0  0  0  0  0  0  0  0  0
   -2.5589    3.7443    0.0000 C   0  0  0  0  0  0  0  0  0  0  0  0
   -1.7519    3.5728    0.0000 C   0  0  0  0  0  0  0  0  0  0  0  0
   -1.1999    4.1859    0.0000 C   0  0  0  0  0  0  0  0  0  0  0  0
   -0.3929    4.0144    0.0000 C   0  0  0  0  0  0  0  0  0  0  0  0
    0.1592    4.6275    0.0000 N   0  0  0  0  0  0  0  0  0  0  0  0
   -2.8138    4.5289    0.0000 O   0  0  0  0  0  0  0  0  0  0  0  0
   -3.8757    5.4851    0.0000 C   0  0  0  0  0  0  0  0  0  0  0  0
   -3.0687    5.3136    0.0000 C   0  0  0  0  0  0  0  0  0  0  0  0
   -4.1306    6.2697    0.0000 O   0  0  0  0  0  0  0  0  0  0  0  0
   -5.4896    5.8281    0.0000 O   0  0  0  0  0  0  0  0  0  0  0  0
   -6.8487    5.3866    0.0000 C   0  0  0  0  0  0  0  0  0  0  0  0
   -7.6556    5.5581    0.0000 N   0  0  0  0  0  0  0  0  0  0  0  0
   -7.9106    6.3427    0.0000 C   0  0  0  0  0  0  0  0  0  0  0  0
   -7.3585    6.9558    0.0000 C   0  0  0  0  0  0  0  0  0  0  0  0
   -7.6135    7.7404    0.0000 C   0  0  0  0  0  0  0  0  0  0  0  0
   -6.5516    6.7843    0.0000 O   0  0  0  0  0  0  0  0  0  0  0  0
   -8.7175    6.5143    0.0000 C   0  0  0  0  0  0  0  0  0  0  0  0
   -9.2696    5.9012    0.0000 O   0  0  0  0  0  0  0  0  0  0  0  0
   -6.2966    5.9997    0.0000 O   0  0  0  0  0  0  0  0  0  0  0  0
   -5.3190    0.6788    0.0000 O   0  0  0  0  0  0  0  0  0  0  0  0
   -2.6432   -0.6204    0.0000 O   0  0  0  0  0  0  0  0  0  0  0  0
  1  2  2  0  0  0  0
  2  3  1  0  0  0  0
  3  4  2  0  0  0  0
  4  5  1  0  0  0  0
  5  6  2  0  0  0  0
  6  7  1  0  0  0  0
  7  8  2  0  0  0  0
  3  8  1  0  0  0  0
  4  9  1  0  0  0  0
  1  9  1  0  0  0  0
  2 10  1  0  0  0  0
 10 11  1  0  0  0  0
 11 12  1  0  0  0  0
 12 13  1  0  0  0  0
 13 14  1  0  0  0  0
 14 15  1  0  0  0  0
 15 16  1  0  0  0  0
 16 17  2  0  0  0  0
 17 18  1  0  0  0  0
 18 19  2  0  0  0  0
 19 20  1  0  0  0  0
 20 21  2  0  0  0  0
 16 21  1  0  0  0  0
 14 22  1  0  0  0  0
 22 23  1  0  0  0  0
 23 24  1  0  0  0  0
 24 25  1  0  0  0  0
 25 26  1  0  0  0  0
 26 27  1  0  0  0  0
 27 28  1  0  0  0  0
 28 29  1  0  0  0  0
 29 30  2  0  0  0  0
 30 31  1  0  0  0  0
 31 32  2  0  0  0  0
 32 33  1  0  0  0  0
 33 34  2  0  0  0  0
 29 34  1  0  0  0  0
 27 35  1  0  0  0  0
 26 36  2  0  0  0  0
 24 37  1  0  0  0  0
 37 38  1  0  0  0  0
 38 39  1  0  0  0  0
 39 40  1  0  0  0  0
 40 41  1  0  0  0  0
 41 42  1  0  0  0  0
 42 43  1  0  0  0  0
 43 44  1  0  0  0  0
 44 45  1  0  0  0  0
 45 46  1  0  0  0  0
 46 47  1  0  0  0  0
 47 48  1  0  0  0  0
 48 49  1  0  0  0  0
 11 49  1  0  0  0  0
 49 50  2  0  0  0  0
 47 51  1  0  0  0  0
 51 52  1  0  0  0  0
 52 53  1  0  0  0  0
 53 54  1  0  0  0  0
 54 55  1  0  0  0  0
 46 56  2  0  0  0  0
 44 57  1  0  0  0  0
 57 58  1  0  0  0  0
 57 59  1  0  0  0  0
 43 60  2  0  0  0  0
 41 61  1  0  0  0  0
 61 62  1  0  0  0  0
 62 63  1  0  0  0  0
 63 64  1  0  0  0  0
 64 65  1  0  0  0  0
 64 66  1  0  0  0  0
 63 67  1  0  0  0  0
 67 68  1  0  0  0  0
 61 69  2  0  0  0  0
 23 70  2  0  0  0  0
 13 71  2  0  0  0  0
M  END
>  <Name>
Octreotide Acetate

>  <CAS>
83150-76-9

>  <Formula>
C49H66N10O10S2

>  <MolWt>
1019.24 

>  <Bioactivity>
Octreotide is a synthetic long-acting cyclic octapeptide with pharmacologic properties mimicking those of the natural hormone somatostatin. Octreotide is a more potent inhibitor of growth hormone, glucagon, and insulin than somatostatin. Similar to somatostatin, this agent also suppresses the luteinizing hormone response to gonadotropin-releasing hormone, decreases splanchnic blood flow, and inhibits the release of serotonin, gastrin, vasoactive intestinal peptide (VIP), secretin, motilin, pancreatic polypeptide, and thyroid stimulating hormone.

>  <Pathways>
Endocrinology/ Hormones

>  <Target>
Somatostatin receptor 

>  <Receptor>
Somatostatin receptor 

>  <Reference>
1. Bronstein MD. Front Horm Res. 2006;35:129-34.

$$$$
T1786
  Mrv1561503291623562D          

 56 59  0  0  0  0            999 V2000
    4.2218   -1.3942    0.0000 C   0  0  0  0  0  0  0  0  0  0  0  0
    3.5073   -1.8067    0.0000 C   0  0  0  0  0  0  0  0  0  0  0  0
    2.7929   -1.3942    0.0000 C   0  0  0  0  0  0  0  0  0  0  0  0
    3.5073   -2.6317    0.0000 C   0  0  0  0  0  0  0  0  0  0  0  0
    2.7929   -3.0442    0.0000 C   0  0  0  0  0  0  0  0  0  0  0  0
    2.0784   -2.6317    0.0000 O   0  0  0  0  0  0  0  0  0  0  0  0
    2.7929   -3.8692    0.0000 N   0  0  0  0  0  0  0  0  0  0  0  0
    3.4603   -4.3541    0.0000 C   0  0  0  0  0  0  0  0  0  0  0  0
    3.2054   -5.1387    0.0000 C   0  0  0  0  0  0  0  0  0  0  0  0
    2.3804   -5.1387    0.0000 C   0  0  0  0  0  0  0  0  0  0  0  0
    2.1254   -4.3541    0.0000 C   0  0  0  0  0  0  0  0  0  0  0  0
    1.3408   -4.0992    0.0000 C   0  0  0  0  0  0  0  0  0  0  0  0
    0.6734   -4.5841    0.0000 N   0  0  0  0  0  0  0  0  0  0  0  0
    0.0059   -4.0992    0.0000 C   0  0  0  0  0  0  0  0  0  0  0  0
    0.2609   -3.3146    0.0000 C   0  0  0  0  0  0  0  0  0  0  0  0
    1.0859   -3.3146    0.0000 N   0  0  0  0  0  0  0  0  0  0  0  0
   -0.2241   -2.6471    0.0000 C   0  0  0  0  0  0  0  0  0  0  0  0
   -1.0445   -2.7334    0.0000 C   0  0  0  0  0  0  0  0  0  0  0  0
   -1.5295   -2.0659    0.0000 C   0  0  0  0  0  0  0  0  0  0  0  0
   -1.1939   -1.3122    0.0000 C   0  0  0  0  0  0  0  0  0  0  0  0
   -0.3734   -1.2260    0.0000 C   0  0  0  0  0  0  0  0  0  0  0  0
    0.1115   -1.8934    0.0000 C   0  0  0  0  0  0  0  0  0  0  0  0
   -1.6788   -0.6448    0.0000 C   0  0  0  0  0  0  0  0  0  0  0  0
   -2.4993   -0.7310    0.0000 C   0  0  0  0  0  0  0  0  0  0  0  0
   -2.9842   -0.0636    0.0000 C   0  0  0  0  0  0  0  0  0  0  0  0
   -2.6487    0.6901    0.0000 C   0  0  0  0  0  0  0  0  0  0  0  0
   -1.8282    0.7763    0.0000 C   0  0  0  0  0  0  0  0  0  0  0  0
   -1.3433    0.1089    0.0000 C   0  0  0  0  0  0  0  0  0  0  0  0
   -3.1336    1.3575    0.0000 C   0  0  0  0  0  0  0  0  0  0  0  0
   -3.9586    1.3575    0.0000 C   0  0  0  0  0  0  0  0  0  0  0  0
   -4.2135    2.1421    0.0000 N   0  0  0  0  0  0  0  0  0  0  0  0
   -3.5461    2.6271    0.0000 C   0  0  0  0  0  0  0  0  0  0  0  0
   -2.8787    2.1421    0.0000 N   0  0  0  0  0  0  0  0  0  0  0  0
   -3.5461    3.4521    0.0000 C   0  0  0  0  0  0  0  0  0  0  0  0
   -4.2135    3.9370    0.0000 C   0  0  0  0  0  0  0  0  0  0  0  0
   -3.9586    4.7216    0.0000 C   0  0  0  0  0  0  0  0  0  0  0  0
   -3.1336    4.7216    0.0000 C   0  0  0  0  0  0  0  0  0  0  0  0
   -2.8787    3.9370    0.0000 N   0  0  0  0  0  0  0  0  0  0  0  0
   -2.0940    3.6820    0.0000 C   0  0  0  0  0  0  0  0  0  0  0  0
   -1.9225    2.8751    0.0000 O   0  0  0  0  0  0  0  0  0  0  0  0
   -1.4809    4.2341    0.0000 C   0  0  0  0  0  0  0  0  0  0  0  0
   -1.6525    5.0410    0.0000 C   0  0  0  0  0  0  0  0  0  0  0  0
   -2.4371    5.2960    0.0000 C   0  0  0  0  0  0  0  0  0  0  0  0
   -1.0394    5.5931    0.0000 C   0  0  0  0  0  0  0  0  0  0  0  0
   -0.6963    3.9791    0.0000 N   0  0  0  0  0  0  0  0  0  0  0  0
   -0.0832    4.5312    0.0000 C   0  0  0  0  0  0  0  0  0  0  0  0
   -0.2547    5.3381    0.0000 O   0  0  0  0  0  0  0  0  0  0  0  0
    0.7014    4.2762    0.0000 O   0  0  0  0  0  0  0  0  0  0  0  0
    1.3145    4.8283    0.0000 C   0  0  0  0  0  0  0  0  0  0  0  0
    4.2218   -3.0442    0.0000 N   0  0  0  0  0  0  0  0  0  0  0  0
    4.9363   -2.6317    0.0000 C   0  0  0  0  0  0  0  0  0  0  0  0
    4.9363   -1.8067    0.0000 O   0  0  0  0  0  0  0  0  0  0  0  0
    5.6507   -3.0442    0.0000 O   0  0  0  0  0  0  0  0  0  0  0  0
    6.3652   -2.6317    0.0000 C   0  0  0  0  0  0  0  0  0  0  0  0
    8.3688    0.0000    0.0000 Cl  0  0  0  0  0  0  0  0  0  0  0  0
    0.0000   -6.7887    0.0000 Cl  0  0  0  0  0  0  0  0  0  0  0  0
  1  2  1  0  0  0  0
  2  3  1  0  0  0  0
  2  4  1  0  0  0  0
  4  5  1  0  0  0  0
  5  6  2  0  0  0  0
  5  7  1  0  0  0  0
  7  8  1  0  0  0  0
  8  9  1  0  0  0  0
  9 10  1  0  0  0  0
 10 11  1  0  0  0  0
  7 11  1  0  0  0  0
 11 12  1  0  0  0  0
 12 13  2  0  0  0  0
 13 14  1  0  0  0  0
 14 15  2  0  0  0  0
 15 16  1  0  0  0  0
 12 16  1  0  0  0  0
 15 17  1  0  0  0  0
 17 18  2  0  0  0  0
 18 19  1  0  0  0  0
 19 20  2  0  0  0  0
 20 21  1  0  0  0  0
 21 22  2  0  0  0  0
 17 22  1  0  0  0  0
 20 23  1  0  0  0  0
 23 24  2  0  0  0  0
 24 25  1  0  0  0  0
 25 26  2  0  0  0  0
 26 27  1  0  0  0  0
 27 28  2  0  0  0  0
 23 28  1  0  0  0  0
 26 29  1  0  0  0  0
 29 30  2  0  0  0  0
 30 31  1  0  0  0  0
 31 32  2  0  0  0  0
 32 33  1  0  0  0  0
 29 33  1  0  0  0  0
 32 34  1  0  0  0  0
 34 35  1  0  0  0  0
 35 36  1  0  0  0  0
 36 37  1  0  0  0  0
 37 38  1  0  0  0  0
 34 38  1  0  0  0  0
 38 39  1  0  0  0  0
 39 40  2  0  0  0  0
 39 41  1  0  0  0  0
 41 42  1  0  0  0  0
 42 43  1  0  0  0  0
 42 44  1  0  0  0  0
 41 45  1  0  0  0  0
 45 46  1  0  0  0  0
 46 47  2  0  0  0  0
 46 48  1  0  0  0  0
 48 49  1  0  0  0  0
  4 50  1  0  0  0  0
 50 51  1  0  0  0  0
 51 52  2  0  0  0  0
 51 53  1  0  0  0  0
 53 54  1  0  0  0  0
M  END
>  <Name>
Daclatasvir, BMS790052

>  <CAS>
1009119-65-6

>  <Formula>
C40H52Cl2N8O6

>  <MolWt>
811.80 

>  <Bioactivity>
BMS-790052 is a highly selective inhibitor of HCV NS5A with EC50 of 9-50 pM, for a broad range of HCV replicon genotypes and the JFH-1 genotype 2a infectious virus in cell culture.

>  <Pathways>
Microbiology & Virology 

>  <Target>
HCV inhibitor

>  <Receptor>
HCV NS5A

>  <Reference>
1. Fridell RA et al. Antimicrob Agents Chemother. 2010 Sep;54(9):3641-50.

$$$$
198481-33-3
  Mrv1561503291623562D          

 39 42  0  0  0  0            999 V2000
    1.0065    3.0558    0.0000 C   0  0  0  0  0  0  0  0  0  0  0  0
    1.7210    2.6433    0.0000 C   0  0  0  0  0  0  0  0  0  0  0  0
    1.7210    1.8183    0.0000 C   0  0  0  0  0  0  0  0  0  0  0  0
    1.0065    1.4058    0.0000 C   0  0  0  0  0  0  0  0  0  0  0  0
    0.2920    1.8183    0.0000 C   0  0  0  0  0  0  0  0  0  0  0  0
    0.2920    2.6433    0.0000 C   0  0  0  0  0  0  0  0  0  0  0  0
   -0.4926    2.8982    0.0000 C   0  0  0  0  0  0  0  0  0  0  0  0
   -0.9775    2.2308    0.0000 C   0  0  0  0  0  0  0  0  0  0  0  0
   -1.8025    2.2308    0.0000 C   0  0  0  0  0  0  0  0  0  0  0  0
   -2.2150    1.5163    0.0000 C   0  0  0  0  0  0  0  0  0  0  0  0
   -3.0400    1.5163    0.0000 C   0  0  0  0  0  0  0  0  0  0  0  0
   -3.4525    2.2308    0.0000 C   0  0  0  0  0  0  0  0  0  0  0  0
   -3.0400    2.9452    0.0000 C   0  0  0  0  0  0  0  0  0  0  0  0
   -2.2150    2.9452    0.0000 C   0  0  0  0  0  0  0  0  0  0  0  0
   -4.2775    2.2308    0.0000 O   0  0  0  0  0  0  0  0  0  0  0  0
   -0.4926    1.5633    0.0000 N   0  0  0  0  0  0  0  0  0  0  0  0
   -0.7475    0.7787    0.0000 C   0  0  0  0  0  0  0  0  0  0  0  0
   -0.1955    0.1656    0.0000 C   0  0  0  0  0  0  0  0  0  0  0  0
    0.6115    0.3371    0.0000 C   0  0  0  0  0  0  0  0  0  0  0  0
    1.1635   -0.2760    0.0000 C   0  0  0  0  0  0  0  0  0  0  0  0
    0.9086   -1.0606    0.0000 C   0  0  0  0  0  0  0  0  0  0  0  0
    0.1016   -1.2321    0.0000 C   0  0  0  0  0  0  0  0  0  0  0  0
   -0.4504   -0.6190    0.0000 C   0  0  0  0  0  0  0  0  0  0  0  0
    1.4606   -1.6737    0.0000 O   0  0  0  0  0  0  0  0  0  0  0  0
    1.2057   -2.4583    0.0000 C   0  0  0  0  0  0  0  0  0  0  0  0
    1.7577   -3.0714    0.0000 C   0  0  0  0  0  0  0  0  0  0  0  0
    1.5028   -3.8560    0.0000 N   0  0  0  0  0  0  0  0  0  0  0  0
    2.0991   -4.4261    0.0000 C   0  0  0  0  0  0  0  0  0  0  0  0
    2.0251   -5.2478    0.0000 C   0  0  0  0  0  0  0  0  0  0  0  0
    1.3366   -5.7023    0.0000 C   0  0  0  0  0  0  0  0  0  0  0  0
    0.5520   -5.4474    0.0000 C   0  0  0  0  0  0  0  0  0  0  0  0
    0.2621   -4.6750    0.0000 C   0  0  0  0  0  0  0  0  0  0  0  0
    0.6852   -3.9668    0.0000 C   0  0  0  0  0  0  0  0  0  0  0  0
   -0.7475    3.6828    0.0000 C   0  0  0  0  0  0  0  0  0  0  0  0
    2.4354    3.0558    0.0000 O   0  0  0  0  0  0  0  0  0  0  0  0
    5.4408    0.7145    0.0000 C   0  0  0  0  0  0  0  0  0  0  0  0
    5.0283   -0.0000    0.0000 C   0  0  0  0  0  0  0  0  0  0  0  0
    5.4408   -0.7145    0.0000 O   0  0  0  0  0  0  0  0  0  0  0  0
    4.2033   -0.0000    0.0000 O   0  0  0  0  0  0  0  0  0  0  0  0
  1  2  2  0  0  0  0
  2  3  1  0  0  0  0
  3  4  2  0  0  0  0
  4  5  1  0  0  0  0
  5  6  2  0  0  0  0
  1  6  1  0  0  0  0
  6  7  1  0  0  0  0
  7  8  2  0  0  0  0
  8  9  1  0  0  0  0
  9 10  2  0  0  0  0
 10 11  1  0  0  0  0
 11 12  2  0  0  0  0
 12 13  1  0  0  0  0
 13 14  2  0  0  0  0
  9 14  1  0  0  0  0
 12 15  1  0  0  0  0
  8 16  1  0  0  0  0
  5 16  1  0  0  0  0
 16 17  1  0  0  0  0
 17 18  1  0  0  0  0
 18 19  2  0  0  0  0
 19 20  1  0  0  0  0
 20 21  2  0  0  0  0
 21 22  1  0  0  0  0
 22 23  2  0  0  0  0
 18 23  1  0  0  0  0
 21 24  1  0  0  0  0
 24 25  1  0  0  0  0
 25 26  1  0  0  0  0
 26 27  1  0  0  0  0
 27 28  1  0  0  0  0
 28 29  1  0  0  0  0
 29 30  1  0  0  0  0
 30 31  1  0  0  0  0
 31 32  1  0  0  0  0
 32 33  1  0  0  0  0
 27 33  1  0  0  0  0
  7 34  1  0  0  0  0
  2 35  1  0  0  0  0
 36 37  1  0  0  0  0
 37 38  1  0  0  0  0
 37 39  2  0  0  0  0
M  END
>  <Name>
Bazedoxifene acetate

>  <CAS>
198481-33-3

>  <Formula>
C30H34N2O3.HCl

>  <MolWt>
507.06 

>  <Bioactivity>
azedoxifene HCl is a novel, non-steroidal, indole-based estrogen receptor modulator (SERM) binding to both ER? and ER? with IC50 of 23 nM and 89 nM, respectively.

>  <Pathways>
Endocrinology/ Hormones

>  <Target>
Estrogen/Progestogen Receptor modulator

>  <Receptor>
Er?;Er?

>  <Reference>
1. Miller CP, et al. J Med Chem, 2001, 44(11), 1654-1657.

$$$$
58-46-8
  Mrv1561503291623562D          

 23 25  0  0  0  0            999 V2000
    2.7770    1.1270    0.0000 C   0  0  0  0  0  0  0  0  0  0  0  0
    3.6020    1.1270    0.0000 C   0  0  0  0  0  0  0  0  0  0  0  0
    4.0145    1.8414    0.0000 O   0  0  0  0  0  0  0  0  0  0  0  0
    4.8395    1.8414    0.0000 C   0  0  0  0  0  0  0  0  0  0  0  0
    4.0145    0.4125    0.0000 C   0  0  0  0  0  0  0  0  0  0  0  0
    3.6020   -0.3020    0.0000 C   0  0  0  0  0  0  0  0  0  0  0  0
    2.7770   -0.3020    0.0000 C   0  0  0  0  0  0  0  0  0  0  0  0
    2.3645    0.4125    0.0000 C   0  0  0  0  0  0  0  0  0  0  0  0
    1.5395    0.4125    0.0000 C   0  0  0  0  0  0  0  0  0  0  0  0
    1.1270   -0.3020    0.0000 N   0  0  0  0  0  0  0  0  0  0  0  0
    0.3020   -0.3020    0.0000 C   0  0  0  0  0  0  0  0  0  0  0  0
   -0.1105    0.4125    0.0000 C   0  0  0  0  0  0  0  0  0  0  0  0
   -0.9355    0.4125    0.0000 C   0  0  0  0  0  0  0  0  0  0  0  0
   -1.3480    1.1270    0.0000 C   0  0  0  0  0  0  0  0  0  0  0  0
   -2.1730    1.1270    0.0000 C   0  0  0  0  0  0  0  0  0  0  0  0
   -0.9355    1.8414    0.0000 C   0  0  0  0  0  0  0  0  0  0  0  0
    0.3020    1.1270    0.0000 C   0  0  0  0  0  0  0  0  0  0  0  0
    1.1270    1.1270    0.0000 C   0  0  0  0  0  0  0  0  0  0  0  0
   -0.1105    1.8414    0.0000 O   0  0  0  0  0  0  0  0  0  0  0  0
    1.5395   -1.0164    0.0000 C   0  0  0  0  0  0  0  0  0  0  0  0
    2.3645   -1.0164    0.0000 C   0  0  0  0  0  0  0  0  0  0  0  0
    4.8395    0.4125    0.0000 O   0  0  0  0  0  0  0  0  0  0  0  0
    5.2520    1.1270    0.0000 C   0  0  0  0  0  0  0  0  0  0  0  0
  1  2  2  0  0  0  0
  2  3  1  0  0  0  0
  3  4  1  0  0  0  0
  2  5  1  0  0  0  0
  5  6  2  0  0  0  0
  6  7  1  0  0  0  0
  7  8  2  0  0  0  0
  1  8  1  0  0  0  0
  8  9  1  0  0  0  0
  9 10  1  0  0  0  0
 10 11  1  0  0  0  0
 11 12  1  0  0  0  0
 12 13  1  0  0  0  0
 13 14  1  0  0  0  0
 14 15  1  0  0  0  0
 14 16  1  0  0  0  0
 12 17  1  0  0  0  0
 17 18  1  0  0  0  0
  9 18  1  0  0  0  0
 17 19  2  0  0  0  0
 10 20  1  0  0  0  0
 20 21  1  0  0  0  0
  7 21  1  0  0  0  0
  5 22  1  0  0  0  0
 22 23  1  0  0  0  0
M  END
>  <Name>
Tetrabenazine

>  <CAS>
58-46-8

>  <Formula>
C19H27NO3

>  <MolWt>
317.42 

>  <Bioactivity>
Tetrabenazine is a VMAT-inhibitor used for treatment of hyperkinetic movement disorder.

>  <Pathways>
Neuroscience

>  <Target>
Dopamine Receptor inhibitor

>  <Receptor>
Synaptic vesicular amine transporter;D(2) dopamine receptor 

>  <Reference>
1. Zheng G, et al. AAPS J. 2006 Nov 10;8(4):E682-92.

$$$$
147084-10-4
  Mrv1561503291623562D          

 23 26  0  0  0  0            999 V2000
    4.8090    1.7803    0.0000 C   0  0  0  0  0  0  0  0  0  0  0  0
    4.4933    2.5425    0.0000 C   0  0  0  0  0  0  0  0  0  0  0  0
    3.6708    2.4778    0.0000 N   0  0  0  0  0  0  0  0  0  0  0  0
    3.4782    1.6756    0.0000 C   0  0  0  0  0  0  0  0  0  0  0  0
    4.1817    1.2445    0.0000 N   0  0  0  0  0  0  0  0  0  0  0  0
    2.7310    1.3259    0.0000 C   0  0  0  0  0  0  0  0  0  0  0  0
    1.9917    1.6922    0.0000 C   0  0  0  0  0  0  0  0  0  0  0  0
    1.8172    2.4985    0.0000 C   0  0  0  0  0  0  0  0  0  0  0  0
    2.3387    3.1377    0.0000 C   0  0  0  0  0  0  0  0  0  0  0  0
    3.1637    3.1285    0.0000 C   0  0  0  0  0  0  0  0  0  0  0  0
    1.0316    2.7505    0.0000 C   0  0  0  0  0  0  0  0  0  0  0  0
    0.4206    2.1961    0.0000 C   0  0  0  0  0  0  0  0  0  0  0  0
    0.5952    1.3898    0.0000 C   0  0  0  0  0  0  0  0  0  0  0  0
    1.3807    1.1378    0.0000 C   0  0  0  0  0  0  0  0  0  0  0  0
    2.7218    0.5010    0.0000 C   0  0  0  0  0  0  0  0  0  0  0  0
    3.4316    0.0805    0.0000 C   0  0  0  0  0  0  0  0  0  0  0  0
    3.4224   -0.7444    0.0000 C   0  0  0  0  0  0  0  0  0  0  0  0
    2.7033   -1.1489    0.0000 N   0  0  0  0  0  0  0  0  0  0  0  0
    1.9935   -0.7284    0.0000 C   0  0  0  0  0  0  0  0  0  0  0  0
    2.0027    0.0965    0.0000 C   0  0  0  0  0  0  0  0  0  0  0  0
    2.6941   -1.9739    0.0000 C   0  0  0  0  0  0  0  0  0  0  0  0
    4.9243    3.2460    0.0000 C   0  0  0  0  0  0  0  0  0  0  0  0
    4.5306    3.9710    0.0000 O   0  0  0  0  0  0  0  0  0  0  0  0
  1  2  2  0  0  0  0
  2  3  1  0  0  0  0
  3  4  1  0  0  0  0
  4  5  2  0  0  0  0
  1  5  1  0  0  0  0
  4  6  1  0  0  0  0
  6  7  1  0  0  0  0
  7  8  2  0  0  0  0
  8  9  1  0  0  0  0
  9 10  1  0  0  0  0
  3 10  1  0  0  0  0
  8 11  1  0  0  0  0
 11 12  2  0  0  0  0
 12 13  1  0  0  0  0
 13 14  2  0  0  0  0
  7 14  1  0  0  0  0
  6 15  2  0  0  0  0
 15 16  1  0  0  0  0
 16 17  1  0  0  0  0
 17 18  1  0  0  0  0
 18 19  1  0  0  0  0
 19 20  1  0  0  0  0
 15 20  1  0  0  0  0
 18 21  1  0  0  0  0
  2 22  1  0  0  0  0
 22 23  2  0  0  0  0
M  END
>  <Name>
Alcaftadine

>  <CAS>
147084-10-4

>  <Formula>
C19H21N3O

>  <MolWt>
307.39 

>  <Bioactivity>
Alcaftadine(R89674) is a H1 histamine receptor antagonist, which is used to prevent eye irritation brought on by allergic conjunctivitis.

>  <Pathways>
Neuroscience

>  <Target>
Histamine Receptor antagonist

>  <Receptor>
H1 Histamine Receptor

>  <Reference>
1. Namdar R and C Valdez Alcaftadine. Drugs Today (Barc), 2011. 47(12): p. 883-90.

$$$$
29031-19-4
  Mrv1561503291623562D          

 17 15  0  0  1  0            999 V2000
    0.3572   -0.2062    0.0000 C   0  0  1  0  0  0  0  0  0  0  0  0
    0.3572   -1.0312    0.0000 O   0  0  0  0  0  0  0  0  0  0  0  0
   -0.3572    0.2063    0.0000 C   0  0  2  0  0  0  0  0  0  0  0  0
   -0.3572    1.0313    0.0000 O   0  0  0  0  0  0  0  0  0  0  0  0
   -1.0717   -0.2063    0.0000 C   0  0  2  0  0  0  0  0  0  0  0  0
   -1.0717   -1.0313    0.0000 O   0  0  0  0  0  0  0  0  0  0  0  0
   -1.7862    0.2062    0.0000 C   0  0  0  0  0  0  0  0  0  0  0  0
   -2.5006   -0.2063    0.0000 O   0  0  0  0  0  0  0  0  0  0  0  0
    1.0717    0.2063    0.0000 C   0  0  1  0  0  0  0  0  0  0  0  0
    1.0717    1.0313    0.0000 N   0  0  0  0  0  0  0  0  0  0  0  0
    1.7862   -0.2062    0.0000 C   0  0  0  0  0  0  0  0  0  0  0  0
    2.5006    0.2063    0.0000 O   0  0  0  0  0  0  0  0  0  0  0  0
    5.2114   -0.8250    0.0000 O   0  0  0  0  0  0  0  0  0  0  0  0
    5.2114    0.0000    0.0000 S   0  0  0  0  0  0  0  0  0  0  0  0
    5.2114    0.8250    0.0000 O   0  0  0  0  0  0  0  0  0  0  0  0
    6.0364   -0.0000    0.0000 O   0  0  0  0  0  0  0  0  0  0  0  0
    4.3864    0.0000    0.0000 O   0  0  0  0  0  0  0  0  0  0  0  0
  1  2  1  1  0  0  0
  1  3  1  0  0  0  0
  3  4  1  1  0  0  0
  3  5  1  0  0  0  0
  5  6  1  6  0  0  0
  5  7  1  0  0  0  0
  7  8  1  0  0  0  0
  1  9  1  0  0  0  0
  9 10  1  1  0  0  0
  9 11  1  0  0  0  0
 11 12  2  0  0  0  0
 13 14  2  0  0  0  0
 14 15  2  0  0  0  0
 14 16  1  0  0  0  0
 14 17  1  0  0  0  0
M  END
>  <Name>
Glucosamine sulfate

>  <CAS>
29031-19-4

>  <Formula>
C6H13NO5.H2SO4

>  <MolWt>
277.25 

>  <Bioactivity>
Extracted from synthetic product;Store the product in sealed, cool and dry condition

>  <Pathways>
Proteases/Proteasome

>  <Target>
MMP inhibitor

>  <Receptor>
MMP-3

>  <Reference>
1. Mavrogonatou E, Angelopoulou MT, Kletsas D. J Orthop Res. 2014 Dec;32(12):1701-7. 

$$$$
7660-25-5
  Mrv1561503291623562D          

 12 12  0  0  1  0            999 V2000
    0.7145    1.2375    0.0000 C   0  0  2  0  0  0  0  0  0  0  0  0
    1.4289    0.8250    0.0000 O   0  0  0  0  0  0  0  0  0  0  0  0
    1.4289    0.0000    0.0000 C   0  0  0  0  0  0  0  0  0  0  0  0
    0.7145   -0.4125    0.0000 C   0  0  2  0  0  0  0  0  0  0  0  0
    0.0000   -0.0000    0.0000 C   0  0  2  0  0  0  0  0  0  0  0  0
    0.0000    0.8250    0.0000 C   0  0  2  0  0  0  0  0  0  0  0  0
   -0.7145    1.2375    0.0000 O   0  0  0  0  0  0  0  0  0  0  0  0
   -0.7145   -0.4125    0.0000 O   0  0  0  0  0  0  0  0  0  0  0  0
    0.7145   -1.2375    0.0000 O   0  0  0  0  0  0  0  0  0  0  0  0
    1.1018    1.9659    0.0000 O   0  0  0  0  0  0  0  0  0  0  0  0
    0.3272    1.9659    0.0000 C   0  0  0  0  0  0  0  0  0  0  0  0
   -0.4973    1.9947    0.0000 O   0  0  0  0  0  0  0  0  0  0  0  0
  1  2  1  0  0  0  0
  2  3  1  0  0  0  0
  3  4  1  0  0  0  0
  4  5  1  0  0  0  0
  5  6  1  0  0  0  0
  1  6  1  0  0  0  0
  6  7  1  6  0  0  0
  5  8  1  1  0  0  0
  4  9  1  1  0  0  0
  1 10  1  6  0  0  0
  1 11  1  1  0  0  0
 11 12  1  0  0  0  0
M  END
>  <Name>
Fructose

>  <CAS>
7660-25-5

>  <Formula>
C6H6O6

>  <MolWt>
180.06 

>  <Bioactivity>
Extracted from Honey,fruits,berries,melon;Suitability:Water,ethanol,methanol,methylamine,ethylamine,pyridine and hot acetone;Store the product in sealed,cool and dry condition

>  <Pathways>
Others

>  <Target>
Others

>  <Receptor>
Others

>  <Reference>
1. Hassel B, et al. J Neurochem. 2015 May;133(4):572-81. 

$$$$
T0100L
  Mrv1561503291623562D          

 51 53  0  0  1  0            999 V2000
    2.3178   -1.3186    0.0000 C   0  0  2  0  0  0  0  0  0  0  0  0
    2.5878   -0.5391    0.0000 C   0  0  0  0  0  0  0  0  0  0  0  0
    2.8579    0.2405    0.0000 C   0  0  0  0  0  0  0  0  0  0  0  0
    1.8083   -0.2690    0.0000 C   0  0  0  0  0  0  0  0  0  0  0  0
    3.3674   -0.8091    0.0000 C   0  0  0  0  0  0  0  0  0  0  0  0
    1.5077   -1.4745    0.0000 N   0  0  0  0  0  0  0  0  0  0  0  0
    0.9676   -0.8509    0.0000 C   0  0  0  0  0  0  0  0  0  0  0  0
    1.2376   -0.0713    0.0000 O   0  0  0  0  0  0  0  0  0  0  0  0
    0.1574   -1.0068    0.0000 O   0  0  0  0  0  0  0  0  0  0  0  0
   -0.3827   -0.3832    0.0000 C   0  0  0  0  0  0  0  0  0  0  0  0
    2.8579   -1.9423    0.0000 C   0  0  0  0  0  0  0  0  0  0  0  0
    3.6680   -1.7863    0.0000 O   0  0  0  0  0  0  0  0  0  0  0  0
    2.5878   -2.7218    0.0000 N   0  0  0  0  0  0  0  0  0  0  0  0
    3.1279   -3.3454    0.0000 N   0  0  0  0  0  0  0  0  0  0  0  0
    2.8579   -4.1250    0.0000 C   0  0  0  0  0  0  0  0  0  0  0  0
    2.0477   -4.2809    0.0000 C   0  0  0  0  0  0  0  0  0  0  0  0
    1.7777   -5.0605    0.0000 C   0  0  0  0  0  0  0  0  0  0  0  0
    0.9676   -5.2164    0.0000 C   0  0  0  0  0  0  0  0  0  0  0  0
    0.4275   -4.5927    0.0000 C   0  0  0  0  0  0  0  0  0  0  0  0
    0.6975   -3.8132    0.0000 C   0  0  0  0  0  0  0  0  0  0  0  0
    1.5077   -3.6573    0.0000 C   0  0  0  0  0  0  0  0  0  0  0  0
   -0.3827   -4.7486    0.0000 C   0  0  0  0  0  0  0  0  0  0  0  0
   -0.6527   -5.5282    0.0000 N   0  0  0  0  0  0  0  0  0  0  0  0
   -1.4628   -5.6841    0.0000 C   0  0  0  0  0  0  0  0  0  0  0  0
   -2.0029   -5.0605    0.0000 C   0  0  0  0  0  0  0  0  0  0  0  0
   -1.7329   -4.2809    0.0000 C   0  0  0  0  0  0  0  0  0  0  0  0
   -0.9227   -4.1250    0.0000 C   0  0  0  0  0  0  0  0  0  0  0  0
    3.9381   -3.1895    0.0000 C   0  0  0  0  0  0  0  0  0  0  0  0
    4.2081   -2.4100    0.0000 C   0  0  1  0  0  0  0  0  0  0  0  0
    5.0182   -2.2541    0.0000 C   0  0  1  0  0  0  0  0  0  0  0  0
    5.5583   -2.8777    0.0000 N   0  0  0  0  0  0  0  0  0  0  0  0
    5.2883   -3.6573    0.0000 C   0  0  0  0  0  0  0  0  0  0  0  0
    5.8284   -4.2809    0.0000 C   0  0  1  0  0  0  0  0  0  0  0  0
    5.5583   -5.0605    0.0000 N   0  0  0  0  0  0  0  0  0  0  0  0
    6.0984   -5.6841    0.0000 C   0  0  0  0  0  0  0  0  0  0  0  0
    6.9086   -5.5282    0.0000 O   0  0  0  0  0  0  0  0  0  0  0  0
    5.8284   -6.4637    0.0000 O   0  0  0  0  0  0  0  0  0  0  0  0
    6.3685   -7.0873    0.0000 C   0  0  0  0  0  0  0  0  0  0  0  0
    6.6385   -4.1250    0.0000 C   0  0  0  0  0  0  0  0  0  0  0  0
    6.7944   -4.9351    0.0000 C   0  0  0  0  0  0  0  0  0  0  0  0
    6.4826   -3.3149    0.0000 C   0  0  0  0  0  0  0  0  0  0  0  0
    7.4486   -3.9691    0.0000 C   0  0  0  0  0  0  0  0  0  0  0  0
    4.4782   -3.8132    0.0000 O   0  0  0  0  0  0  0  0  0  0  0  0
    5.2883   -1.4745    0.0000 C   0  0  0  0  0  0  0  0  0  0  0  0
    6.0984   -1.3186    0.0000 C   0  0  0  0  0  0  0  0  0  0  0  0
    6.3685   -0.5391    0.0000 C   0  0  0  0  0  0  0  0  0  0  0  0
    7.1786   -0.3832    0.0000 C   0  0  0  0  0  0  0  0  0  0  0  0
    7.7187   -1.0068    0.0000 C   0  0  0  0  0  0  0  0  0  0  0  0
    7.4486   -1.7863    0.0000 C   0  0  0  0  0  0  0  0  0  0  0  0
    6.6385   -1.9423    0.0000 C   0  0  0  0  0  0  0  0  0  0  0  0
    4.1377   -1.5880    0.0000 O   0  0  0  0  0  0  0  0  0  0  0  0
  1  2  1  0  0  0  0
  2  3  1  0  0  0  0
  2  4  1  0  0  0  0
  2  5  1  0  0  0  0
  1  6  1  1  0  0  0
  6  7  1  0  0  0  0
  7  8  2  0  0  0  0
  7  9  1  0  0  0  0
  9 10  1  0  0  0  0
  1 11  1  0  0  0  0
 11 12  2  0  0  0  0
 11 13  1  0  0  0  0
 13 14  1  0  0  0  0
 14 15  1  0  0  0  0
 15 16  1  0  0  0  0
 16 17  2  0  0  0  0
 17 18  1  0  0  0  0
 18 19  2  0  0  0  0
 19 20  1  0  0  0  0
 20 21  2  0  0  0  0
 16 21  1  0  0  0  0
 19 22  1  0  0  0  0
 22 23  2  0  0  0  0
 23 24  1  0  0  0  0
 24 25  2  0  0  0  0
 25 26  1  0  0  0  0
 26 27  2  0  0  0  0
 22 27  1  0  0  0  0
 14 28  1  0  0  0  0
 28 29  1  0  0  0  0
 29 30  1  0  0  0  0
 30 31  1  6  0  0  0
 31 32  1  0  0  0  0
 32 33  1  0  0  0  0
 33 34  1  6  0  0  0
 34 35  1  0  0  0  0
 35 36  2  0  0  0  0
 35 37  1  0  0  0  0
 37 38  1  0  0  0  0
 33 39  1  0  0  0  0
 39 40  1  0  0  0  0
 39 41  1  0  0  0  0
 39 42  1  0  0  0  0
 32 43  2  0  0  0  0
 30 44  1  0  0  0  0
 44 45  1  0  0  0  0
 45 46  2  0  0  0  0
 46 47  1  0  0  0  0
 47 48  2  0  0  0  0
 48 49  1  0  0  0  0
 49 50  2  0  0  0  0
 45 50  1  0  0  0  0
 29 51  1  6  0  0  0
M  END
>  <Name>
Atazanavir

>  <CAS>
198904-31-3

>  <Formula>
C38H52N6O7

>  <MolWt>
704.87 

>  <Bioactivity>
Atazanavir (formerly known as BMS-232632) is an antiretroviral drug of the protease inhibitor (PI) class. Like other antiretrovirals, it is used to treat infection of human immunodeficiency virus (HIV). Atazanavir is distinguished from other PIs in that it can be given once-daily (rather than requiring multiple doses per day) and has lesser effects on the patient's lipid profile (the amounts of cholesterol and other fatty substances in the blood). Like other protease inhibitors, it is used only in combination with other HIV medications. The U.S. Food and Drug Administration (FDA) approved atazanavir on June 20, 2003.   

>  <Pathways>
Proteases/Proteasome; Microbiology & Virology

>  <Target>
HIV Protease inhibitor

>  <Receptor>
HIV Protease

>  <Reference>
1. Robinson BS, et al. Antimicrob Agents Chemother, 2000, 44(8), 2093-2099.

$$$$
62-97-5
  Mrv1561503291623562D          

 27 28  0  0  0  0            999 V2000
   -0.4582   -1.3855    0.0000 C   0  0  0  0  0  0  0  0  0  0  0  0
    0.2563   -0.9730    0.0000 C   0  0  0  0  0  0  0  0  0  0  0  0
    0.2563   -0.1480    0.0000 C   0  0  0  0  0  0  0  0  0  0  0  0
   -0.4582    0.2645    0.0000 C   0  0  0  0  0  0  0  0  0  0  0  0
   -1.1727   -0.1480    0.0000 C   0  0  0  0  0  0  0  0  0  0  0  0
   -1.8872    0.2645    0.0000 C   0  0  0  0  0  0  0  0  0  0  0  0
   -1.8872    1.0895    0.0000 N   0  3  0  0  0  0  0  0  0  0  0  0
   -2.6996    0.9463    0.0000 C   0  0  0  0  0  0  0  0  0  0  0  0
   -2.1693    1.8648    0.0000 C   0  0  0  0  0  0  0  0  0  0  0  0
   -1.1727    1.5020    0.0000 C   0  0  0  0  0  0  0  0  0  0  0  0
   -0.4582    1.0895    0.0000 C   0  0  0  0  0  0  0  0  0  0  0  0
    0.9707    0.2645    0.0000 C   0  0  0  0  0  0  0  0  0  0  0  0
    0.9707    1.0895    0.0000 C   0  0  0  0  0  0  0  0  0  0  0  0
    1.6852    1.5020    0.0000 C   0  0  0  0  0  0  0  0  0  0  0  0
    2.3997    1.0895    0.0000 C   0  0  0  0  0  0  0  0  0  0  0  0
    2.3997    0.2645    0.0000 C   0  0  0  0  0  0  0  0  0  0  0  0
    1.6852   -0.1480    0.0000 C   0  0  0  0  0  0  0  0  0  0  0  0
    0.9707   -1.3855    0.0000 C   0  0  0  0  0  0  0  0  0  0  0  0
    0.9707   -2.2105    0.0000 C   0  0  0  0  0  0  0  0  0  0  0  0
    0.2563   -2.6230    0.0000 C   0  0  0  0  0  0  0  0  0  0  0  0
   -0.4582   -2.2105    0.0000 C   0  0  0  0  0  0  0  0  0  0  0  0
    4.7568   -1.0312    0.0000 C   0  0  0  0  0  0  0  0  0  0  0  0
    5.4713   -0.6188    0.0000 O   0  0  0  0  0  0  0  0  0  0  0  0
    5.4713    0.2062    0.0000 S   0  0  0  0  0  0  0  0  0  0  0  0
    5.4713    1.0313    0.0000 O   0  0  0  0  0  0  0  0  0  0  0  0
    6.2963    0.2062    0.0000 O   0  0  0  0  0  0  0  0  0  0  0  0
    4.6463    0.2062    0.0000 O   0  5  0  0  0  0  0  0  0  0  0  0
  1  2  2  0  0  0  0
  2  3  1  0  0  0  0
  3  4  2  0  0  0  0
  4  5  1  0  0  0  0
  5  6  1  0  0  0  0
  6  7  1  0  0  0  0
  7  8  1  0  0  0  0
  7  9  1  0  0  0  0
  7 10  1  0  0  0  0
 10 11  1  0  0  0  0
  4 11  1  0  0  0  0
  3 12  1  0  0  0  0
 12 13  2  0  0  0  0
 13 14  1  0  0  0  0
 14 15  2  0  0  0  0
 15 16  1  0  0  0  0
 16 17  2  0  0  0  0
 12 17  1  0  0  0  0
  2 18  1  0  0  0  0
 18 19  2  0  0  0  0
 19 20  1  0  0  0  0
 20 21  2  0  0  0  0
  1 21  1  0  0  0  0
 22 23  1  0  0  0  0
 23 24  1  0  0  0  0
 24 25  2  0  0  0  0
 24 26  2  0  0  0  0
 24 27  1  0  0  0  0
M  CHG  2   7   1  27  -1
M  END
>  <Name>
Diphemanil mesylate

>  <CAS>
62-97-5

>  <Formula>
C20H24N.CH3O4S

>  <MolWt>
389.51 

>  <Bioactivity>
Actions Daidzein is a phytoestrogen that is suggested to play a role in preventing hormone-induced cancers.

>  <Pathways>
Neuroscience

>  <Target>
AChR antagonist

>  <Receptor>
AChR

>  <Reference>
1. Feng G, et al. Int Immunopharmacol. 2015 Apr 15;26(2):392-400. 

$$$$
388082-78-8
  Mrv1561503291623562D          

 61 64  0  0  0  0            999 V2000
   -3.0308   -0.2316    0.0000 C   0  0  0  0  0  0  0  0  0  0  0  0
   -3.4433    0.4829    0.0000 C   0  0  0  0  0  0  0  0  0  0  0  0
   -2.8912    1.0960    0.0000 O   0  0  0  0  0  0  0  0  0  0  0  0
   -2.1375    0.7604    0.0000 C   0  0  0  0  0  0  0  0  0  0  0  0
   -2.2238   -0.0601    0.0000 C   0  0  0  0  0  0  0  0  0  0  0  0
   -1.4231    1.1729    0.0000 C   0  0  0  0  0  0  0  0  0  0  0  0
   -0.7086    0.7604    0.0000 C   0  0  0  0  0  0  0  0  0  0  0  0
    0.0059    1.1729    0.0000 C   0  0  0  0  0  0  0  0  0  0  0  0
    0.0059    1.9979    0.0000 C   0  0  0  0  0  0  0  0  0  0  0  0
    0.7203    2.4104    0.0000 N   0  0  0  0  0  0  0  0  0  0  0  0
    1.4348    1.9979    0.0000 C   0  0  0  0  0  0  0  0  0  0  0  0
    1.4348    1.1729    0.0000 N   0  0  0  0  0  0  0  0  0  0  0  0
    0.7203    0.7604    0.0000 C   0  0  0  0  0  0  0  0  0  0  0  0
    0.7203   -0.0646    0.0000 N   0  0  0  0  0  0  0  0  0  0  0  0
    1.4348   -0.4771    0.0000 C   0  0  0  0  0  0  0  0  0  0  0  0
    2.1493   -0.0646    0.0000 C   0  0  0  0  0  0  0  0  0  0  0  0
    2.8638   -0.4771    0.0000 C   0  0  0  0  0  0  0  0  0  0  0  0
    2.8638   -1.3021    0.0000 C   0  0  0  0  0  0  0  0  0  0  0  0
    3.5782   -1.7146    0.0000 O   0  0  0  0  0  0  0  0  0  0  0  0
    3.5782   -2.5396    0.0000 C   0  0  0  0  0  0  0  0  0  0  0  0
    4.2927   -2.9521    0.0000 C   0  0  0  0  0  0  0  0  0  0  0  0
    5.0072   -2.5396    0.0000 C   0  0  0  0  0  0  0  0  0  0  0  0
    5.7216   -2.9521    0.0000 C   0  0  0  0  0  0  0  0  0  0  0  0
    5.7216   -3.7771    0.0000 C   0  0  0  0  0  0  0  0  0  0  0  0
    5.0072   -4.1896    0.0000 C   0  0  0  0  0  0  0  0  0  0  0  0
    4.2927   -3.7771    0.0000 C   0  0  0  0  0  0  0  0  0  0  0  0
    6.4361   -2.5396    0.0000 F   0  0  0  0  0  0  0  0  0  0  0  0
    2.1493   -1.7146    0.0000 C   0  0  0  0  0  0  0  0  0  0  0  0
    1.4348   -1.3021    0.0000 C   0  0  0  0  0  0  0  0  0  0  0  0
    3.5782   -0.0646    0.0000 Cl  0  0  0  0  0  0  0  0  0  0  0  0
   -0.7086    2.4104    0.0000 C   0  0  0  0  0  0  0  0  0  0  0  0
   -1.4231    1.9979    0.0000 C   0  0  0  0  0  0  0  0  0  0  0  0
   -4.2637    0.5691    0.0000 C   0  0  0  0  0  0  0  0  0  0  0  0
   -4.5993    1.3228    0.0000 N   0  0  0  0  0  0  0  0  0  0  0  0
   -5.4198    1.4090    0.0000 C   0  0  0  0  0  0  0  0  0  0  0  0
   -5.7553    2.1627    0.0000 C   0  0  0  0  0  0  0  0  0  0  0  0
   -6.5758    2.2490    0.0000 S   0  0  0  0  0  0  0  0  0  0  0  0
   -7.3963    2.3352    0.0000 O   0  0  0  0  0  0  0  0  0  0  0  0
   -6.4896    3.0694    0.0000 O   0  0  0  0  0  0  0  0  0  0  0  0
   -6.6620    1.4285    0.0000 C   0  0  0  0  0  0  0  0  0  0  0  0
    8.3218   -0.3300    0.0000 C   0  0  0  0  0  0  0  0  0  0  0  0
    9.0363    0.0825    0.0000 C   0  0  0  0  0  0  0  0  0  0  0  0
    9.0363    0.9075    0.0000 S   0  0  0  0  0  0  0  0  0  0  0  0
    9.0363    1.7325    0.0000 O   0  0  0  0  0  0  0  0  0  0  0  0
    8.2113    0.9075    0.0000 O   0  0  0  0  0  0  0  0  0  0  0  0
    9.8613    0.9075    0.0000 O   0  0  0  0  0  0  0  0  0  0  0  0
    9.7508   -0.3300    0.0000 C   0  0  0  0  0  0  0  0  0  0  0  0
    9.7508   -1.1550    0.0000 C   0  0  0  0  0  0  0  0  0  0  0  0
    9.0363   -1.5675    0.0000 C   0  0  0  0  0  0  0  0  0  0  0  0
    8.3218   -1.1550    0.0000 C   0  0  0  0  0  0  0  0  0  0  0  0
   -0.7145   -7.9021    0.0000 C   0  0  0  0  0  0  0  0  0  0  0  0
   -0.0000   -7.4896    0.0000 C   0  0  0  0  0  0  0  0  0  0  0  0
    0.0000   -6.6646    0.0000 S   0  0  0  0  0  0  0  0  0  0  0  0
    0.0000   -5.8396    0.0000 O   0  0  0  0  0  0  0  0  0  0  0  0
   -0.8250   -6.6646    0.0000 O   0  0  0  0  0  0  0  0  0  0  0  0
    0.8250   -6.6646    0.0000 O   0  0  0  0  0  0  0  0  0  0  0  0
    0.7145   -7.9021    0.0000 C   0  0  0  0  0  0  0  0  0  0  0  0
    0.7145   -8.7271    0.0000 C   0  0  0  0  0  0  0  0  0  0  0  0
   -0.0000   -9.1396    0.0000 C   0  0  0  0  0  0  0  0  0  0  0  0
   -0.7145   -8.7271    0.0000 C   0  0  0  0  0  0  0  0  0  0  0  0
    3.1821   -7.5721    0.0000 O   0  0  0  0  0  0  0  0  0  0  0  0
  1  2  2  0  0  0  0
  2  3  1  0  0  0  0
  3  4  1  0  0  0  0
  4  5  2  0  0  0  0
  1  5  1  0  0  0  0
  4  6  1  0  0  0  0
  6  7  2  0  0  0  0
  7  8  1  0  0  0  0
  8  9  2  0  0  0  0
  9 10  1  0  0  0  0
 10 11  2  0  0  0  0
 11 12  1  0  0  0  0
 12 13  2  0  0  0  0
  8 13  1  0  0  0  0
 13 14  1  0  0  0  0
 14 15  1  0  0  0  0
 15 16  2  0  0  0  0
 16 17  1  0  0  0  0
 17 18  2  0  0  0  0
 18 19  1  0  0  0  0
 19 20  1  0  0  0  0
 20 21  1  0  0  0  0
 21 22  2  0  0  0  0
 22 23  1  0  0  0  0
 23 24  2  0  0  0  0
 24 25  1  0  0  0  0
 25 26  2  0  0  0  0
 21 26  1  0  0  0  0
 23 27  1  0  0  0  0
 18 28  1  0  0  0  0
 28 29  2  0  0  0  0
 15 29  1  0  0  0  0
 17 30  1  0  0  0  0
  9 31  1  0  0  0  0
 31 32  2  0  0  0  0
  6 32  1  0  0  0  0
  2 33  1  0  0  0  0
 33 34  1  0  0  0  0
 34 35  1  0  0  0  0
 35 36  1  0  0  0  0
 36 37  1  0  0  0  0
 37 38  2  0  0  0  0
 37 39  2  0  0  0  0
 37 40  1  0  0  0  0
 41 42  2  0  0  0  0
 42 43  1  0  0  0  0
 43 44  1  0  0  0  0
 43 45  2  0  0  0  0
 43 46  2  0  0  0  0
 42 47  1  0  0  0  0
 47 48  2  0  0  0  0
 48 49  1  0  0  0  0
 49 50  2  0  0  0  0
 41 50  1  0  0  0  0
 51 52  2  0  0  0  0
 52 53  1  0  0  0  0
 53 54  1  0  0  0  0
 53 55  2  0  0  0  0
 53 56  2  0  0  0  0
 52 57  1  0  0  0  0
 57 58  2  0  0  0  0
 58 59  1  0  0  0  0
 59 60  2  0  0  0  0
 51 60  1  0  0  0  0
M  END
>  <Name>
Lapatinib ditosylate

>  <CAS>
388082-78-8

>  <Formula>
C29H26ClFN4O4S.2(C7H8O3S)

>  <MolWt>
925.48 

>  <Bioactivity>
Lapatinib is an anti-cancer drug developed by GlaxoSmithKline (GSK) as a treatment for solid tumours such as breast and lung cancer. It was approved by the FDA on March 13, 2007, for use in patients with advanced metastatic breast cancer in conjunction with the chemotherapy drug Capecitabine. Lapatinib is human epidermal growth factor receptor type 2 (HER2/ERBB2) and epidermal growth factor receptor (HER1/EGFR/ERBB1) tyrosine kinases inhibitor. It binds to the intracellular phosphorylation domain to prevent receptor autophosphorylation upon ligand binding. 

>  <Pathways>
Tyrosine Kinase/Adaptors; JAK/STAT Signaling 

>  <Target>
EGFR inhibitor; HER2 inhibitor

>  <Receptor>
EGFR, ErbB2

>  <Reference>
1. Rusnak DW, et al. Mol Cancer Ther, 2001, 1(2), 85-94.

$$$$
1156-19-0
  Mrv1561503291623562D          

 21 22  0  0  0  0            999 V2000
   -2.1611   -2.6832    0.0000 C   0  0  0  0  0  0  0  0  0  0  0  0
   -2.1611   -3.5082    0.0000 C   0  0  0  0  0  0  0  0  0  0  0  0
   -2.8755   -3.9207    0.0000 C   0  0  0  0  0  0  0  0  0  0  0  0
   -3.5900   -3.5082    0.0000 C   0  0  0  0  0  0  0  0  0  0  0  0
   -3.5900   -2.6832    0.0000 C   0  0  0  0  0  0  0  0  0  0  0  0
   -2.8755   -2.2707    0.0000 C   0  0  0  0  0  0  0  0  0  0  0  0
   -2.8755   -1.4457    0.0000 S   0  0  0  0  0  0  0  0  0  0  0  0
   -2.8755   -0.6207    0.0000 N   0  0  0  0  0  0  0  0  0  0  0  0
   -3.5900   -0.2082    0.0000 C   0  0  0  0  0  0  0  0  0  0  0  0
   -3.5900    0.6168    0.0000 N   0  0  0  0  0  0  0  0  0  0  0  0
   -4.3045    1.0293    0.0000 N   0  0  0  0  0  0  0  0  0  0  0  0
   -4.9861    0.5646    0.0000 C   0  0  0  0  0  0  0  0  0  0  0  0
   -5.7745    0.8077    0.0000 C   0  0  0  0  0  0  0  0  0  0  0  0
   -6.0759    1.5757    0.0000 C   0  0  0  0  0  0  0  0  0  0  0  0
   -5.6634    2.2902    0.0000 C   0  0  0  0  0  0  0  0  0  0  0  0
   -4.8476    2.4131    0.0000 C   0  0  0  0  0  0  0  0  0  0  0  0
   -4.2428    1.8520    0.0000 C   0  0  0  0  0  0  0  0  0  0  0  0
   -4.3045   -0.6207    0.0000 O   0  0  0  0  0  0  0  0  0  0  0  0
   -3.7005   -1.4457    0.0000 O   0  0  0  0  0  0  0  0  0  0  0  0
   -2.0505   -1.4457    0.0000 O   0  0  0  0  0  0  0  0  0  0  0  0
   -2.8755   -4.7457    0.0000 C   0  0  0  0  0  0  0  0  0  0  0  0
  1  2  2  0  0  0  0
  2  3  1  0  0  0  0
  3  4  2  0  0  0  0
  4  5  1  0  0  0  0
  5  6  2  0  0  0  0
  1  6  1  0  0  0  0
  6  7  1  0  0  0  0
  7  8  1  0  0  0  0
  8  9  1  0  0  0  0
  9 10  1  0  0  0  0
 10 11  1  0  0  0  0
 11 12  1  0  0  0  0
 12 13  1  0  0  0  0
 13 14  1  0  0  0  0
 14 15  1  0  0  0  0
 15 16  1  0  0  0  0
 16 17  1  0  0  0  0
 11 17  1  0  0  0  0
  9 18  2  0  0  0  0
  7 19  2  0  0  0  0
  7 20  2  0  0  0  0
  3 21  1  0  0  0  0
M  END
>  <Name>
Tolazamide

>  <CAS>
1156-19-0

>  <Formula>
C14H21N3O3S

>  <MolWt>
311.40 

>  <Bioactivity>
A sulphonylurea hypoglycemic agent with actions and uses similar to those of CHLORPROPAMIDE.

>  <Pathways>
Membrane Transporter/Ion Channel

>  <Target>
Potassium Channel

>  <Receptor>
Potassium Channel

>  <Reference>
1. Szabo C, Salzman AL. Shock. 1996 Jun;5(6):391-4. 

$$$$
364-98-7
  Mrv1561503291623562D          

 14 15  0  0  0  0            999 V2000
    0.0000   -1.6500    0.0000 C   0  0  0  0  0  0  0  0  0  0  0  0
    0.7145   -1.2375    0.0000 C   0  0  0  0  0  0  0  0  0  0  0  0
    0.7145   -0.4125    0.0000 C   0  0  0  0  0  0  0  0  0  0  0  0
   -0.0000    0.0000    0.0000 C   0  0  0  0  0  0  0  0  0  0  0  0
   -0.7145   -0.4125    0.0000 C   0  0  0  0  0  0  0  0  0  0  0  0
   -0.7145   -1.2375    0.0000 C   0  0  0  0  0  0  0  0  0  0  0  0
   -1.4289   -0.0000    0.0000 Cl  0  0  0  0  0  0  0  0  0  0  0  0
    1.4289    0.0000    0.0000 S   0  0  0  0  0  0  0  0  0  0  0  0
    2.1434   -0.4125    0.0000 N   0  0  0  0  0  0  0  0  0  0  0  0
    2.1434   -1.2375    0.0000 C   0  0  0  0  0  0  0  0  0  0  0  0
    1.4289   -1.6500    0.0000 N   0  0  0  0  0  0  0  0  0  0  0  0
    2.8579   -1.6500    0.0000 C   0  0  0  0  0  0  0  0  0  0  0  0
    1.0416    0.7284    0.0000 O   0  0  0  0  0  0  0  0  0  0  0  0
    1.8163    0.7284    0.0000 O   0  0  0  0  0  0  0  0  0  0  0  0
  1  2  2  0  0  0  0
  2  3  1  0  0  0  0
  3  4  2  0  0  0  0
  4  5  1  0  0  0  0
  5  6  2  0  0  0  0
  1  6  1  0  0  0  0
  5  7  1  0  0  0  0
  3  8  1  0  0  0  0
  8  9  1  0  0  0  0
  9 10  2  0  0  0  0
 10 11  1  0  0  0  0
  2 11  1  0  0  0  0
 10 12  1  0  0  0  0
  8 13  2  0  0  0  0
  8 14  2  0  0  0  0
M  END
>  <Name>
Diazoxide

>  <CAS>
364-98-7

>  <Formula>
C8H7ClN2O2S

>  <MolWt>
230.67 

>  <Bioactivity>
A benzothiadiazine derivative that is a peripheral vasodilator used for hypertensive emergencies. It lacks diuretic effect, apparently because it lacks a sulfonamide group. 

>  <Pathways>
Membrane Transporter/Ion Channel; Enzyme

>  <Target>
ATPase inhibitor;Potassium Channel; Carbonic anhydrase inhibitor

>  <Receptor>
Na+, K+-ATPase;Potassium Channel ; CA

>  <Reference>
1. D’hahan N, et al. Proc Natl Acad Sci U S A. 1999 Oct 12;96(21):12162-7.

$$$$
71-63-6
  Mrv1561503291623562D          

 54 61  0  0  1  0            999 V2000
    0.7475   -2.9779    0.0000 C   0  0  2  0  0  0  0  0  0  0  0  0
    1.5596   -2.8327    0.0000 C   0  0  1  0  0  0  0  0  0  0  0  0
    2.0914   -3.4634    0.0000 C   0  0  1  0  0  0  0  0  0  0  0  0
    2.9035   -3.3182    0.0000 C   0  0  2  0  0  0  0  0  0  0  0  0
    3.1838   -2.5422    0.0000 C   0  0  1  0  0  0  0  0  0  0  0  0
    3.9960   -2.3970    0.0000 C   0  0  0  0  0  0  0  0  0  0  0  0
    4.5278   -3.0277    0.0000 C   0  0  1  0  0  0  0  0  0  0  0  0
    5.3399   -2.8825    0.0000 O   0  0  0  0  0  0  0  0  0  0  0  0
    5.8717   -3.5132    0.0000 C   0  0  1  0  0  0  0  0  0  0  0  0
    6.6838   -3.3680    0.0000 C   0  0  0  0  0  0  0  0  0  0  0  0
    7.2157   -3.9987    0.0000 C   0  0  1  0  0  0  0  0  0  0  0  0
    6.9354   -4.7746    0.0000 C   0  0  2  0  0  0  0  0  0  0  0  0
    7.4672   -5.4053    0.0000 O   0  0  0  0  0  0  0  0  0  0  0  0
    7.1869   -6.1813    0.0000 C   0  0  1  0  0  0  0  0  0  0  0  0
    7.7187   -6.8120    0.0000 C   0  0  0  0  0  0  0  0  0  0  0  0
    7.4384   -7.5879    0.0000 C   0  0  1  0  0  0  0  0  0  0  0  0
    6.6263   -7.7331    0.0000 C   0  0  2  0  0  0  0  0  0  0  0  0
    6.3460   -8.5090    0.0000 O   0  0  0  0  0  0  0  0  0  0  0  0
    5.5339   -8.6543    0.0000 C   0  0  1  0  0  0  0  0  0  0  0  0
    5.2536   -9.4302    0.0000 C   0  0  0  0  0  0  0  0  0  0  0  0
    4.4414   -9.5754    0.0000 C   0  0  1  0  0  0  0  0  0  0  0  0
    3.9096   -8.9447    0.0000 C   0  0  2  0  0  0  0  0  0  0  0  0
    3.0975   -9.0899    0.0000 O   0  0  0  0  0  0  0  0  0  0  0  0
    4.1899   -8.1688    0.0000 C   0  0  2  0  0  0  0  0  0  0  0  0
    5.0020   -8.0235    0.0000 O   0  0  0  0  0  0  0  0  0  0  0  0
    3.6581   -7.5381    0.0000 C   0  0  0  0  0  0  0  0  0  0  0  0
    4.1611  -10.3513    0.0000 O   0  0  0  0  0  0  0  0  0  0  0  0
    6.0945   -7.1024    0.0000 C   0  0  2  0  0  0  0  0  0  0  0  0
    6.3748   -6.3265    0.0000 O   0  0  0  0  0  0  0  0  0  0  0  0
    5.2823   -7.2476    0.0000 C   0  0  0  0  0  0  0  0  0  0  0  0
    7.9702   -8.2186    0.0000 O   0  0  0  0  0  0  0  0  0  0  0  0
    6.1232   -4.9199    0.0000 C   0  0  2  0  0  0  0  0  0  0  0  0
    5.5914   -4.2891    0.0000 O   0  0  0  0  0  0  0  0  0  0  0  0
    5.8429   -5.6958    0.0000 C   0  0  0  0  0  0  0  0  0  0  0  0
    8.0278   -3.8535    0.0000 O   0  0  0  0  0  0  0  0  0  0  0  0
    4.2475   -3.8037    0.0000 C   0  0  0  0  0  0  0  0  0  0  0  0
    3.4354   -3.9489    0.0000 C   0  0  0  0  0  0  0  0  0  0  0  0
    2.6520   -1.9115    0.0000 C   0  0  0  0  0  0  0  0  0  0  0  0
    1.8399   -2.0567    0.0000 C   0  0  0  0  0  0  0  0  0  0  0  0
    2.6232   -4.0941    0.0000 C   0  0  0  0  0  0  0  0  0  0  0  0
    1.8111   -4.2393    0.0000 C   0  0  0  0  0  0  0  0  0  0  0  0
    0.9990   -4.3845    0.0000 C   0  0  0  0  0  0  0  0  0  0  0  0
    0.4672   -3.7538    0.0000 C   0  0  2  0  0  0  0  0  0  0  0  0
   -0.3574   -3.7270    0.0000 C   0  0  1  0  0  0  0  0  0  0  0  0
   -0.8637   -4.3783    0.0000 C   0  0  0  0  0  0  0  0  0  0  0  0
   -0.6344   -5.1708    0.0000 C   0  0  0  0  0  0  0  0  0  0  0  0
   -1.3173   -5.6338    0.0000 C   0  0  0  0  0  0  0  0  0  0  0  0
   -1.3441   -6.4584    0.0000 O   0  0  0  0  0  0  0  0  0  0  0  0
   -1.9686   -5.1274    0.0000 O   0  0  0  0  0  0  0  0  0  0  0  0
   -1.6883   -4.3515    0.0000 C   0  0  0  0  0  0  0  0  0  0  0  0
   -0.5867   -2.9345    0.0000 C   0  0  0  0  0  0  0  0  0  0  0  0
    0.0962   -2.4715    0.0000 C   0  0  0  0  0  0  0  0  0  0  0  0
    0.1073   -4.4962    0.0000 C   0  0  0  0  0  0  0  0  0  0  0  0
    0.9451   -2.1769    0.0000 O   0  0  0  0  0  0  0  0  0  0  0  0
  1  2  1  0  0  0  0
  2  3  1  0  0  0  0
  3  4  1  0  0  0  0
  4  5  1  0  0  0  0
  5  6  1  0  0  0  0
  6  7  1  0  0  0  0
  7  8  1  1  0  0  0
  9  8  1  1  0  0  0
  9 10  1  0  0  0  0
 10 11  1  0  0  0  0
 11 12  1  0  0  0  0
 12 13  1  6  0  0  0
 14 13  1  1  0  0  0
 14 15  1  0  0  0  0
 15 16  1  0  0  0  0
 16 17  1  0  0  0  0
 17 18  1  6  0  0  0
 19 18  1  1  0  0  0
 19 20  1  0  0  0  0
 20 21  1  0  0  0  0
 21 22  1  0  0  0  0
 22 23  1  6  0  0  0
 22 24  1  0  0  0  0
 24 25  1  0  0  0  0
 19 25  1  0  0  0  0
 24 26  1  1  0  0  0
 21 27  1  6  0  0  0
 17 28  1  0  0  0  0
 28 29  1  0  0  0  0
 14 29  1  0  0  0  0
 28 30  1  1  0  0  0
 16 31  1  6  0  0  0
 12 32  1  0  0  0  0
 32 33  1  0  0  0  0
  9 33  1  0  0  0  0
 32 34  1  1  0  0  0
 11 35  1  6  0  0  0
  7 36  1  0  0  0  0
 36 37  1  0  0  0  0
  4 37  1  0  0  0  0
  5 38  1  6  0  0  0
 38 39  1  0  0  0  0
  2 39  1  6  0  0  0
  4 40  1  1  0  0  0
  3 41  1  1  0  0  0
 41 42  1  0  0  0  0
 42 43  1  0  0  0  0
  1 43  1  0  0  0  0
 43 44  1  0  0  0  0
 44 45  1  1  0  0  0
 45 46  2  0  0  0  0
 46 47  1  0  0  0  0
 47 48  2  0  0  0  0
 47 49  1  0  0  0  0
 49 50  1  0  0  0  0
 45 50  1  0  0  0  0
 44 51  1  0  0  0  0
 51 52  1  0  0  0  0
  1 52  1  0  0  0  0
 43 53  1  1  0  0  0
  1 54  1  1  0  0  0
M  END
>  <Name>
Digitoxin

>  <CAS>
71-63-6

>  <Formula>
C41H64O13

>  <MolWt>
764.94 

>  <Bioactivity>
A cardiac glycoside sometimes used in place of DIGOXIN. It has a longer half-life than digoxin; toxic effects, which are similar to those of digoxin, are longer lasting. (From Martindale, The Extra Pharmacopoeia, 30th ed, p665

>  <Pathways>
Membrane Transporter/Ion Channel

>  <Target>
Others

>  <Receptor>
organic anion transporter

>  <Reference>
1. Bossuyt X, et al. J Pharmacol Exp Ther. 1996 Mar;276(3):891-6. 

$$$$
T1246
  Mrv1561503291623562D          

 14 15  0  0  0  0            999 V2000
    1.1903    1.8455    0.0000 C   0  0  0  0  0  0  0  0  0  0  0  0
    1.0875    0.9834    0.0000 C   0  0  0  0  0  0  0  0  0  0  0  0
    0.3514    0.6633    0.0000 C   0  0  0  0  0  0  0  0  0  0  0  0
    0.2955   -0.3065    0.0000 C   0  0  0  0  0  0  0  0  0  0  0  0
    1.1329   -0.6660    0.0000 C   0  0  0  0  0  0  0  0  0  0  0  0
    1.3164    0.1644    0.0000 C   0  0  0  0  0  0  0  0  0  0  0  0
    0.6639   -0.6143    0.0000 C   0  0  0  0  0  0  0  0  0  0  0  0
    0.5181    0.1834    0.0000 C   0  0  0  0  0  0  0  0  0  0  0  0
    1.8357   -0.2340    0.0000 C   0  0  0  0  0  0  0  0  0  0  0  0
    1.8131    0.5907    0.0000 C   0  0  0  0  0  0  0  0  0  0  0  0
   -0.3604    1.2233    0.0000 O   0  0  0  0  0  0  0  0  0  0  0  0
   -1.2084    1.1425    0.0000 C   0  0  0  0  0  0  0  0  0  0  0  0
   -1.5513    0.3922    0.0000 C   0  0  0  0  0  0  0  0  0  0  0  0
   -1.6868    1.8147    0.0000 O   0  0  0  0  0  0  0  0  0  0  0  0
  1  2  1  0  0  0  0
  2  3  1  0  0  0  0
  3  4  1  0  0  0  0
  4  5  1  0  0  0  0
  5  6  1  0  0  0  0
  2  6  1  0  0  0  0
  6  7  1  0  0  0  0
  6  8  1  0  0  0  0
  5  9  1  0  0  0  0
  9 10  1  0  0  0  0
  2 10  1  0  0  0  0
  3 11  1  0  0  0  0
 11 12  1  0  0  0  0
 12 13  1  0  0  0  0
 12 14  2  0  0  0  0
M  END
>  <Name>
Bornyl acetate

>  <CAS>
76-49-3

>  <Formula>
C12H20O2

>  <MolWt>
196.29 

>  <Bioactivity>
Bornyl acetate is the main volatile constituent in numerous conifer oils and some Chinese traditional herbs, which has displayed an anti-inflammatory effect before. 

>  <Pathways>
Immunology/Inflammation

>  <Target>
IL inhibitor

>  <Receptor>
IL receptor

>  <Reference>
1. Yang H, et al. IUBMB Life. 2014 Dec;66(12):854-9. 

$$$$
1617-90-9
  Mrv1561503291623562D          

 26 30  0  0  1  0            999 V2000
    1.2003    1.1190    0.0000 C   0  0  2  0  0  0  0  0  0  0  0  0
    0.3767    1.0719    0.0000 C   0  0  0  0  0  0  0  0  0  0  0  0
   -0.0760    1.7616    0.0000 C   0  0  0  0  0  0  0  0  0  0  0  0
   -0.8718    1.5443    0.0000 C   0  0  0  0  0  0  0  0  0  0  0  0
   -1.5659    1.9902    0.0000 C   0  0  0  0  0  0  0  0  0  0  0  0
   -2.2992    1.6122    0.0000 C   0  0  0  0  0  0  0  0  0  0  0  0
   -2.3384    0.7881    0.0000 C   0  0  0  0  0  0  0  0  0  0  0  0
   -1.6443    0.3421    0.0000 C   0  0  0  0  0  0  0  0  0  0  0  0
   -0.9110    0.7202    0.0000 C   0  0  0  0  0  0  0  0  0  0  0  0
    0.0057    0.3350    0.0000 N   0  0  0  0  0  0  0  0  0  0  0  0
    0.4583   -0.3547    0.0000 C   0  0  2  0  0  0  0  0  0  0  0  0
    1.2820   -0.3076    0.0000 C   0  0  0  0  0  0  0  0  0  0  0  0
    1.6530    0.4293    0.0000 C   0  0  2  0  0  0  0  0  0  0  0  0
    2.4766    0.4764    0.0000 C   0  0  0  0  0  0  0  0  0  0  0  0
    2.8476    1.2133    0.0000 C   0  0  0  0  0  0  0  0  0  0  0  0
    2.3950    1.9031    0.0000 C   0  0  0  0  0  0  0  0  0  0  0  0
    1.5713    1.8559    0.0000 N   0  0  0  0  0  0  0  0  0  0  0  0
    1.1187    2.5456    0.0000 C   0  0  0  0  0  0  0  0  0  0  0  0
    0.2950    2.4985    0.0000 C   0  0  0  0  0  0  0  0  0  0  0  0
    2.1056   -0.2604    0.0000 C   0  0  0  0  0  0  0  0  0  0  0  0
    2.9293   -0.2133    0.0000 C   0  0  0  0  0  0  0  0  0  0  0  0
   -0.2152   -0.8312    0.0000 C   0  0  0  0  0  0  0  0  0  0  0  0
   -0.1393   -1.6527    0.0000 O   0  0  0  0  0  0  0  0  0  0  0  0
   -0.8128   -2.1291    0.0000 C   0  0  0  0  0  0  0  0  0  0  0  0
   -0.9646   -0.4861    0.0000 O   0  0  0  0  0  0  0  0  0  0  0  0
    0.4767   -1.1795    0.0000 O   0  0  0  0  0  0  0  0  0  0  0  0
  1  2  1  1  0  0  0
  2  3  2  0  0  0  0
  3  4  1  0  0  0  0
  4  5  2  0  0  0  0
  5  6  1  0  0  0  0
  6  7  2  0  0  0  0
  7  8  1  0  0  0  0
  8  9  2  0  0  0  0
  4  9  1  0  0  0  0
  9 10  1  0  0  0  0
  2 10  1  0  0  0  0
 10 11  1  0  0  0  0
 11 12  1  0  0  0  0
 12 13  1  0  0  0  0
  1 13  1  0  0  0  0
 13 14  1  0  0  0  0
 14 15  1  0  0  0  0
 15 16  1  0  0  0  0
 16 17  1  0  0  0  0
  1 17  1  0  0  0  0
 17 18  1  0  0  0  0
 18 19  1  0  0  0  0
  3 19  1  0  0  0  0
 13 20  1  6  0  0  0
 20 21  1  0  0  0  0
 11 22  1  6  0  0  0
 22 23  1  0  0  0  0
 23 24  1  0  0  0  0
 22 25  2  0  0  0  0
 11 26  1  1  0  0  0
M  END
>  <Name>
Vincamine

>  <CAS>
1617-90-9

>  <Formula>
C21H26N2O3

>  <MolWt>
354.44 

>  <Bioactivity>
A major alkaloid of Vinca minor L., Apocynaceae. It has been used therapeutically as a vasodilator and antihypertensive agent, particularly in cerebrovascular disorders. 

>  <Pathways>
Others

>  <Target>
Others

>  <Receptor>
Others

>  <Reference>
1. Pu H, et al. Luminescence. 2014 Aug;29(5):471-9. 

$$$$
T0247
  Mrv1561503291623562D          

 44 47  0  0  1  0            999 V2000
    5.7158   -4.9500    0.0000 C   0  0  2  0  0  0  0  0  0  0  0  0
    5.0013   -5.3625    0.0000 N   0  0  0  0  0  0  0  0  0  0  0  0
    5.0013   -6.1875    0.0000 C   0  0  2  0  0  0  0  0  0  0  0  0
    4.2868   -6.6000    0.0000 C   0  0  1  0  0  0  0  0  0  0  0  0
    4.2868   -7.4250    0.0000 C   0  0  2  0  0  0  0  0  0  0  0  0
    5.0013   -7.8375    0.0000 C   0  0  2  0  0  0  0  0  0  0  0  0
    5.7158   -7.4250    0.0000 C   0  0  0  0  0  0  0  0  0  0  0  0
    5.7158   -6.6000    0.0000 C   0  0  0  0  0  0  0  0  0  0  0  0
    6.4302   -7.8375    0.0000 C   0  0  0  0  0  0  0  0  0  0  0  0
    6.4302   -8.6625    0.0000 O   0  0  0  0  0  0  0  0  0  0  0  0
    5.0013   -8.6625    0.0000 O   0  0  0  0  0  0  0  0  0  0  0  0
    3.5724   -7.8375    0.0000 O   0  0  0  0  0  0  0  0  0  0  0  0
    3.5724   -6.1875    0.0000 O   0  0  0  0  0  0  0  0  0  0  0  0
    5.7158   -4.1250    0.0000 C   0  0  2  0  0  0  0  0  0  0  0  0
    6.4302   -3.7125    0.0000 O   0  0  0  0  0  0  0  0  0  0  0  0
    7.1447   -4.1250    0.0000 C   0  0  1  0  0  0  0  0  0  0  0  0
    7.1447   -4.9500    0.0000 C   0  0  1  0  0  0  0  0  0  0  0  0
    6.4302   -5.3625    0.0000 C   0  0  1  0  0  0  0  0  0  0  0  0
    6.4302   -6.1875    0.0000 O   0  0  0  0  0  0  0  0  0  0  0  0
    7.8592   -5.3625    0.0000 O   0  0  0  0  0  0  0  0  0  0  0  0
    7.8592   -3.7125    0.0000 O   0  0  0  0  0  0  0  0  0  0  0  0
    7.8592   -2.8875    0.0000 C   0  0  2  0  0  0  0  0  0  0  0  0
    8.5737   -2.4750    0.0000 C   0  0  2  0  0  0  0  0  0  0  0  0
    8.5737   -1.6500    0.0000 O   0  0  0  0  0  0  0  0  0  0  0  0
    7.8592   -1.2375    0.0000 C   0  0  1  0  0  0  0  0  0  0  0  0
    7.1447   -1.6500    0.0000 C   0  0  1  0  0  0  0  0  0  0  0  0
    7.1447   -2.4750    0.0000 C   0  0  1  0  0  0  0  0  0  0  0  0
    6.4302   -2.8875    0.0000 O   0  0  0  0  0  0  0  0  0  0  0  0
    6.4302   -1.2375    0.0000 O   0  0  0  0  0  0  0  0  0  0  0  0
    7.8592   -0.4125    0.0000 O   0  0  0  0  0  0  0  0  0  0  0  0
    8.5737   -0.0000    0.0000 C   0  0  2  0  0  0  0  0  0  0  0  0
    8.5737    0.8250    0.0000 C   0  0  2  0  0  0  0  0  0  0  0  0
    9.2881    1.2375    0.0000 O   0  0  0  0  0  0  0  0  0  0  0  0
   10.0026    0.8250    0.0000 C   0  0  2  0  0  0  0  0  0  0  0  0
   10.0026   -0.0000    0.0000 C   0  0  1  0  0  0  0  0  0  0  0  0
    9.2881   -0.4125    0.0000 C   0  0  1  0  0  0  0  0  0  0  0  0
    9.2881   -1.2375    0.0000 O   0  0  0  0  0  0  0  0  0  0  0  0
   10.7171   -0.4125    0.0000 O   0  0  0  0  0  0  0  0  0  0  0  0
   10.7171    1.2375    0.0000 O   0  0  0  0  0  0  0  0  0  0  0  0
    7.8592    1.2375    0.0000 C   0  0  0  0  0  0  0  0  0  0  0  0
    7.8592    2.0625    0.0000 O   0  0  0  0  0  0  0  0  0  0  0  0
    9.2881   -2.8875    0.0000 C   0  0  0  0  0  0  0  0  0  0  0  0
   10.0026   -2.4750    0.0000 O   0  0  0  0  0  0  0  0  0  0  0  0
    5.0013   -3.7125    0.0000 C   0  0  0  0  0  0  0  0  0  0  0  0
  1  2  1  6  0  0  0
  3  2  1  1  0  0  0
  3  4  1  0  0  0  0
  4  5  1  0  0  0  0
  5  6  1  0  0  0  0
  6  7  1  0  0  0  0
  7  8  2  0  0  0  0
  3  8  1  0  0  0  0
  7  9  1  0  0  0  0
  9 10  1  0  0  0  0
  6 11  1  6  0  0  0
  5 12  1  6  0  0  0
  4 13  1  1  0  0  0
  1 14  1  0  0  0  0
 14 15  1  0  0  0  0
 15 16  1  0  0  0  0
 16 17  1  0  0  0  0
 17 18  1  0  0  0  0
  1 18  1  0  0  0  0
 18 19  1  1  0  0  0
 17 20  1  6  0  0  0
 16 21  1  6  0  0  0
 22 21  1  1  0  0  0
 22 23  1  0  0  0  0
 23 24  1  0  0  0  0
 24 25  1  0  0  0  0
 25 26  1  0  0  0  0
 26 27  1  0  0  0  0
 22 27  1  0  0  0  0
 27 28  1  6  0  0  0
 26 29  1  1  0  0  0
 25 30  1  1  0  0  0
 31 30  1  6  0  0  0
 31 32  1  0  0  0  0
 32 33  1  0  0  0  0
 33 34  1  0  0  0  0
 34 35  1  0  0  0  0
 35 36  1  0  0  0  0
 31 36  1  0  0  0  0
 36 37  1  1  0  0  0
 35 38  1  6  0  0  0
 34 39  1  1  0  0  0
 32 40  1  1  0  0  0
 40 41  1  0  0  0  0
 23 42  1  6  0  0  0
 42 43  1  0  0  0  0
 14 44  1  1  0  0  0
M  END
>  <Name>
Acarbose

>  <CAS>
56180-94-0

>  <Formula>
C25H43NO18

>  <MolWt>
645.60 

>  <Bioactivity>
Acarbose is an inhibitor of intestinal alpha-glucosidase, used to treat type 2 diabetes mellitus.

>  <Pathways>
Others

>  <Target>
Others

>  <Receptor>
?-glucosidase

>  <Reference>
1. Martin AE, Montgomery PA. Am J Health Syst Pharm. 1996 Oct 1;53(19):2277-90; quiz 2336-7.

$$$$
64092-48-4
  Mrv1561503291623562D          

 21 21  0  0  0  0            999 V2000
    2.7041   -1.7840    0.0000 C   0  0  0  0  0  0  0  0  0  0  0  0
    2.4492   -2.5687    0.0000 C   0  0  0  0  0  0  0  0  0  0  0  0
    1.6242   -2.5687    0.0000 N   0  0  0  0  0  0  0  0  0  0  0  0
    1.3693   -1.7840    0.0000 C   0  0  0  0  0  0  0  0  0  0  0  0
    2.0367   -1.2991    0.0000 C   0  0  0  0  0  0  0  0  0  0  0  0
    2.0367   -0.4741    0.0000 C   0  0  0  0  0  0  0  0  0  0  0  0
    0.5846   -1.5291    0.0000 C   0  0  0  0  0  0  0  0  0  0  0  0
    0.4131   -0.7221    0.0000 C   0  0  0  0  0  0  0  0  0  0  0  0
   -0.3715   -0.4672    0.0000 C   0  0  0  0  0  0  0  0  0  0  0  0
   -0.5430    0.3398    0.0000 C   0  0  0  0  0  0  0  0  0  0  0  0
    0.0701    0.8918    0.0000 C   0  0  0  0  0  0  0  0  0  0  0  0
    0.8547    0.6369    0.0000 C   0  0  0  0  0  0  0  0  0  0  0  0
    1.0262   -0.1701    0.0000 C   0  0  0  0  0  0  0  0  0  0  0  0
   -0.1015    1.6988    0.0000 Cl  0  0  0  0  0  0  0  0  0  0  0  0
   -0.0284   -2.0811    0.0000 O   0  0  0  0  0  0  0  0  0  0  0  0
    1.1393   -3.2361    0.0000 C   0  0  0  0  0  0  0  0  0  0  0  0
    2.9341   -3.2361    0.0000 C   0  0  0  0  0  0  0  0  0  0  0  0
    2.5986   -3.9898    0.0000 C   0  0  0  0  0  0  0  0  0  0  0  0
    1.7781   -4.0760    0.0000 O   0  0  0  0  0  0  0  0  0  0  0  0
    3.0835   -4.6572    0.0000 O   0  5  0  0  0  0  0  0  0  0  0  0
    3.5684   -5.3246    0.0000 Na  0  3  0  0  0  0  0  0  0  0  0  0
  1  2  2  0  0  0  0
  2  3  1  0  0  0  0
  3  4  1  0  0  0  0
  4  5  2  0  0  0  0
  1  5  1  0  0  0  0
  5  6  1  0  0  0  0
  4  7  1  0  0  0  0
  7  8  1  0  0  0  0
  8  9  2  0  0  0  0
  9 10  1  0  0  0  0
 10 11  2  0  0  0  0
 11 12  1  0  0  0  0
 12 13  2  0  0  0  0
  8 13  1  0  0  0  0
 11 14  1  0  0  0  0
  7 15  2  0  0  0  0
  3 16  1  0  0  0  0
  2 17  1  0  0  0  0
 17 18  1  0  0  0  0
 18 19  2  0  0  0  0
 18 20  1  0  0  0  0
M  CHG  2  20  -1  21   1
M  END
>  <Name>
Zomepirac Sodium

>  <CAS>
64092-48-4

>  <Formula>
C15H13ClNNaO3

>  <MolWt>
313.71 

>  <Bioactivity>
Zomepirac, formerly marketed as Zomax tablets, was associated with fatal and near-fatal anaphylactoid reactions. The manufacturer voluntarily removed Zomax tablets from the Canadian, US, and UK markets in March 1983.

>  <Pathways>
Neuroscience

>  <Target>
COX

>  <Receptor>
Prostaglandin D2 receptor

>  <Reference>
1. Hata AN, et al. Mol Pharmacol. 2005 Mar;67(3):640-7.

$$$$
26155-31-7
  Mrv1561503291623562D          

 25 25  0  0  1  0            999 V2000
    0.3572    0.2063    0.0000 C   0  0  2  0  0  0  0  0  0  0  0  0
    0.3572    1.0313    0.0000 O   0  0  0  0  0  0  0  0  0  0  0  0
   -0.3572   -0.2062    0.0000 C   0  0  1  0  0  0  0  0  0  0  0  0
   -0.3572   -1.0312    0.0000 O   0  0  0  0  0  0  0  0  0  0  0  0
   -1.0717    0.2063    0.0000 C   0  0  0  0  0  0  0  0  0  0  0  0
   -1.7862   -0.2063    0.0000 O   0  0  0  0  0  0  0  0  0  0  0  0
   -1.0717    1.0312    0.0000 O   0  0  0  0  0  0  0  0  0  0  0  0
    1.0717   -0.2062    0.0000 C   0  0  0  0  0  0  0  0  0  0  0  0
    1.7862    0.2063    0.0000 O   0  0  0  0  0  0  0  0  0  0  0  0
    1.0717   -1.0312    0.0000 O   0  0  0  0  0  0  0  0  0  0  0  0
    9.2298   -0.1851    0.0000 C   0  0  0  0  0  0  0  0  0  0  0  0
    8.9748   -0.9698    0.0000 C   0  0  0  0  0  0  0  0  0  0  0  0
    8.1498   -0.9698    0.0000 S   0  0  0  0  0  0  0  0  0  0  0  0
    7.8949   -0.1851    0.0000 C   0  0  0  0  0  0  0  0  0  0  0  0
    8.5623    0.2998    0.0000 C   0  0  0  0  0  0  0  0  0  0  0  0
    8.5623    1.1248    0.0000 C   0  0  0  0  0  0  0  0  0  0  0  0
    7.1103    0.0698    0.0000 C   0  0  0  0  0  0  0  0  0  0  0  0
    6.4972   -0.4822    0.0000 C   0  0  0  0  0  0  0  0  0  0  0  0
    5.7126   -0.2273    0.0000 C   0  0  0  0  0  0  0  0  0  0  0  0
    5.0995   -0.7793    0.0000 N   0  0  0  0  0  0  0  0  0  0  0  0
    4.3148   -0.5244    0.0000 C   0  0  0  0  0  0  0  0  0  0  0  0
    4.1433    0.2826    0.0000 C   0  0  0  0  0  0  0  0  0  0  0  0
    4.7564    0.8346    0.0000 C   0  0  0  0  0  0  0  0  0  0  0  0
    5.5410    0.5797    0.0000 N   0  0  0  0  0  0  0  0  0  0  0  0
    6.1541    1.1317    0.0000 C   0  0  0  0  0  0  0  0  0  0  0  0
  1  2  1  1  0  0  0
  1  3  1  0  0  0  0
  3  4  1  1  0  0  0
  3  5  1  0  0  0  0
  5  6  2  0  0  0  0
  5  7  1  0  0  0  0
  1  8  1  0  0  0  0
  8  9  2  0  0  0  0
  8 10  1  0  0  0  0
 11 12  2  0  0  0  0
 12 13  1  0  0  0  0
 13 14  1  0  0  0  0
 14 15  2  0  0  0  0
 11 15  1  0  0  0  0
 15 16  1  0  0  0  0
 14 17  1  0  0  0  0
 17 18  2  0  0  0  0
 18 19  1  0  0  0  0
 19 20  2  0  0  0  0
 20 21  1  0  0  0  0
 21 22  1  0  0  0  0
 22 23  1  0  0  0  0
 23 24  1  0  0  0  0
 19 24  1  0  0  0  0
 24 25  1  0  0  0  0
M  END
>  <Name>
Morantel tartrate

>  <CAS>
26155-31-7

>  <Formula>
C18H24N2O7S

>  <MolWt>
370.42 

>  <Bioactivity>
Antinematodal agent used mainly for livestock.

>  <Pathways>
Others

>  <Target>
Others

>  <Receptor>
Others

>  <Reference>
1. Lanusse CE, et al. J Vet Pharmacol Ther. 1992 Jun;15(2):117-23.

$$$$
70-30-4
  Mrv1561503291623562D          

 21 22  0  0  0  0            999 V2000
    2.8579   -1.6500    0.0000 C   0  0  0  0  0  0  0  0  0  0  0  0
    2.8579   -2.4750    0.0000 C   0  0  0  0  0  0  0  0  0  0  0  0
    2.1434   -2.8875    0.0000 C   0  0  0  0  0  0  0  0  0  0  0  0
    1.4289   -2.4750    0.0000 C   0  0  0  0  0  0  0  0  0  0  0  0
    0.7145   -2.8875    0.0000 C   0  0  0  0  0  0  0  0  0  0  0  0
   -0.0000   -2.4750    0.0000 C   0  0  0  0  0  0  0  0  0  0  0  0
   -0.7145   -2.8875    0.0000 C   0  0  0  0  0  0  0  0  0  0  0  0
   -1.4289   -2.4750    0.0000 C   0  0  0  0  0  0  0  0  0  0  0  0
   -1.4289   -1.6500    0.0000 C   0  0  0  0  0  0  0  0  0  0  0  0
   -0.7145   -1.2375    0.0000 C   0  0  0  0  0  0  0  0  0  0  0  0
   -0.0000   -1.6500    0.0000 C   0  0  0  0  0  0  0  0  0  0  0  0
    0.7145   -1.2375    0.0000 Cl  0  0  0  0  0  0  0  0  0  0  0  0
   -0.7145   -0.4125    0.0000 Cl  0  0  0  0  0  0  0  0  0  0  0  0
   -2.1434   -2.8875    0.0000 Cl  0  0  0  0  0  0  0  0  0  0  0  0
   -0.7145   -3.7125    0.0000 O   0  0  0  0  0  0  0  0  0  0  0  0
    1.4289   -1.6500    0.0000 C   0  0  0  0  0  0  0  0  0  0  0  0
    2.1434   -1.2375    0.0000 C   0  0  0  0  0  0  0  0  0  0  0  0
    2.1434   -0.4125    0.0000 Cl  0  0  0  0  0  0  0  0  0  0  0  0
    1.0934   -0.8963    0.0000 O   0  0  0  0  0  0  0  0  0  0  0  0
    2.1434   -3.7125    0.0000 Cl  0  0  0  0  0  0  0  0  0  0  0  0
    3.5724   -2.8875    0.0000 Cl  0  0  0  0  0  0  0  0  0  0  0  0
  1  2  2  0  0  0  0
  2  3  1  0  0  0  0
  3  4  2  0  0  0  0
  4  5  1  0  0  0  0
  5  6  1  0  0  0  0
  6  7  2  0  0  0  0
  7  8  1  0  0  0  0
  8  9  2  0  0  0  0
  9 10  1  0  0  0  0
 10 11  2  0  0  0  0
  6 11  1  0  0  0  0
 11 12  1  0  0  0  0
 10 13  1  0  0  0  0
  8 14  1  0  0  0  0
  7 15  1  0  0  0  0
  4 16  1  0  0  0  0
 16 17  2  0  0  0  0
  1 17  1  0  0  0  0
 17 18  1  0  0  0  0
 16 19  1  0  0  0  0
  3 20  1  0  0  0  0
  2 21  1  0  0  0  0
M  END
>  <Name>
Hexachlorophene

>  <CAS>
70-30-4

>  <Formula>
C13H6Cl6O2

>  <MolWt>
406.90 

>  <Bioactivity>
A chlorinated bisphenol antiseptic with a bacteriostatic action against Gram-positive organisms, but much less effective against Gram-negative organisms. It is mainly used in soaps and creams and is an ingredient of various preparations used for skin disorders. 

>  <Pathways>
Metabolism

>  <Target>
Dehydrogenase inhibitor

>  <Receptor>
D-LDH, GluDH, SDH

>  <Reference>
1. Wang JL, Buhler DR. Biochem Pharmacol. 1978;27(24):2947-53. 

$$$$
T1199
  Mrv1561503291623562D          

 18 19  0  0  0  0            999 V2000
   -1.4289   -2.4750    0.0000 C   0  0  0  0  0  0  0  0  0  0  0  0
   -1.4289   -1.6500    0.0000 C   0  0  0  0  0  0  0  0  0  0  0  0
   -2.1434   -1.2375    0.0000 C   0  0  0  0  0  0  0  0  0  0  0  0
   -2.8579   -1.6500    0.0000 C   0  0  0  0  0  0  0  0  0  0  0  0
   -2.8579   -2.4750    0.0000 C   0  0  0  0  0  0  0  0  0  0  0  0
   -3.5724   -2.8875    0.0000 C   0  0  0  0  0  0  0  0  0  0  0  0
   -4.2868   -2.4750    0.0000 C   0  0  0  0  0  0  0  0  0  0  0  0
   -5.0013   -2.8875    0.0000 Cl  0  0  0  0  0  0  0  0  0  0  0  0
   -4.2868   -1.6500    0.0000 C   0  0  0  0  0  0  0  0  0  0  0  0
   -3.5724   -1.2375    0.0000 C   0  0  0  0  0  0  0  0  0  0  0  0
   -2.1434   -0.4125    0.0000 C   0  0  0  0  0  0  0  0  0  0  0  0
   -2.8579    0.0000    0.0000 Cl  0  0  0  0  0  0  0  0  0  0  0  0
   -1.4289    0.0000    0.0000 Cl  0  0  0  0  0  0  0  0  0  0  0  0
   -0.7145   -1.2375    0.0000 C   0  0  0  0  0  0  0  0  0  0  0  0
   -0.0000   -1.6500    0.0000 C   0  0  0  0  0  0  0  0  0  0  0  0
   -0.0000   -2.4750    0.0000 C   0  0  0  0  0  0  0  0  0  0  0  0
   -0.7145   -2.8875    0.0000 C   0  0  0  0  0  0  0  0  0  0  0  0
   -0.7145   -0.4125    0.0000 Cl  0  0  0  0  0  0  0  0  0  0  0  0
  1  2  2  0  0  0  0
  2  3  1  0  0  0  0
  3  4  1  0  0  0  0
  4  5  2  0  0  0  0
  5  6  1  0  0  0  0
  6  7  2  0  0  0  0
  7  8  1  0  0  0  0
  7  9  1  0  0  0  0
  9 10  2  0  0  0  0
  4 10  1  0  0  0  0
  3 11  1  0  0  0  0
 11 12  1  0  0  0  0
 11 13  1  0  0  0  0
  2 14  1  0  0  0  0
 14 15  2  0  0  0  0
 15 16  1  0  0  0  0
 16 17  2  0  0  0  0
  1 17  1  0  0  0  0
 14 18  1  0  0  0  0
M  END
>  <Name>
Mitotan

>  <CAS>
53-19-0

>  <Formula>
C14H10Cl4

>  <MolWt>
320.04 

>  <Bioactivity>
A derivative of the insecticide DICHLORODIPHENYLDICHLOROETHANE that specifically inhibits cells of the adrenal cortex and their production of hormones. It is used to treat adrenocortical tumors and causes CNS damage, but no bone marrow depression. 

>  <Pathways>
Immunology/Inflammation

>  <Target>
Immunologic Factors

>  <Receptor>
Adrenodoxin

>  <Reference>
1. Kandul SV, et al. Fiziol Zh. 1986 Sep-Oct;32(5):579-84.

$$$$
52645-53-1
  Mrv1561503291623562D          

 26 28  0  0  1  0            999 V2000
    0.7145   -5.8388    0.0000 C   0  0  1  0  0  0  0  0  0  0  0  0
   -0.0000   -6.2513    0.0000 C   0  0  0  0  0  0  0  0  0  0  0  0
   -0.0000   -7.0763    0.0000 O   0  0  0  0  0  0  0  0  0  0  0  0
   -0.7145   -5.8388    0.0000 O   0  0  0  0  0  0  0  0  0  0  0  0
   -1.4289   -6.2513    0.0000 C   0  0  0  0  0  0  0  0  0  0  0  0
   -2.1434   -5.8388    0.0000 C   0  0  0  0  0  0  0  0  0  0  0  0
   -2.8579   -6.2513    0.0000 C   0  0  0  0  0  0  0  0  0  0  0  0
   -3.5724   -5.8388    0.0000 C   0  0  0  0  0  0  0  0  0  0  0  0
   -3.5724   -5.0138    0.0000 C   0  0  0  0  0  0  0  0  0  0  0  0
   -2.8579   -4.6013    0.0000 C   0  0  0  0  0  0  0  0  0  0  0  0
   -2.1434   -5.0138    0.0000 C   0  0  0  0  0  0  0  0  0  0  0  0
   -2.8579   -3.7763    0.0000 O   0  0  0  0  0  0  0  0  0  0  0  0
   -3.5724   -3.3638    0.0000 C   0  0  0  0  0  0  0  0  0  0  0  0
   -4.2868   -3.7763    0.0000 C   0  0  0  0  0  0  0  0  0  0  0  0
   -5.0013   -3.3638    0.0000 C   0  0  0  0  0  0  0  0  0  0  0  0
   -5.0013   -2.5388    0.0000 C   0  0  0  0  0  0  0  0  0  0  0  0
   -4.2868   -2.1263    0.0000 C   0  0  0  0  0  0  0  0  0  0  0  0
   -3.5724   -2.5388    0.0000 C   0  0  0  0  0  0  0  0  0  0  0  0
    1.1270   -5.1243    0.0000 C   0  0  0  0  0  0  0  0  0  0  0  0
    1.5395   -5.8388    0.0000 C   0  0  1  0  0  0  0  0  0  0  0  0
    2.2539   -6.2513    0.0000 C   0  0  0  0  0  0  0  0  0  0  0  0
    2.2539   -7.0763    0.0000 C   0  0  0  0  0  0  0  0  0  0  0  0
    2.9684   -7.4888    0.0000 Cl  0  0  0  0  0  0  0  0  0  0  0  0
    1.5395   -7.4888    0.0000 Cl  0  0  0  0  0  0  0  0  0  0  0  0
    0.6538   -4.4485    0.0000 C   0  0  0  0  0  0  0  0  0  0  0  0
    1.6002   -4.4485    0.0000 C   0  0  0  0  0  0  0  0  0  0  0  0
  1  2  1  1  0  0  0
  2  3  2  0  0  0  0
  2  4  1  0  0  0  0
  4  5  1  0  0  0  0
  5  6  1  0  0  0  0
  6  7  2  0  0  0  0
  7  8  1  0  0  0  0
  8  9  2  0  0  0  0
  9 10  1  0  0  0  0
 10 11  2  0  0  0  0
  6 11  1  0  0  0  0
 10 12  1  0  0  0  0
 12 13  1  0  0  0  0
 13 14  2  0  0  0  0
 14 15  1  0  0  0  0
 15 16  2  0  0  0  0
 16 17  1  0  0  0  0
 17 18  2  0  0  0  0
 13 18  1  0  0  0  0
  1 19  1  0  0  0  0
 19 20  1  0  0  0  0
  1 20  1  0  0  0  0
 20 21  1  1  0  0  0
 21 22  2  0  0  0  0
 22 23  1  0  0  0  0
 22 24  1  0  0  0  0
 19 25  1  0  0  0  0
 19 26  1  0  0  0  0
M  END
>  <Name>
Permethrin

>  <CAS>
52645-53-1

>  <Formula>
C21H20Cl2O3

>  <MolWt>
391.29 

>  <Bioactivity>
A pyrethroid insecticide commonly used in the treatment of lice infestations and scabies. It is a yellow to light orange-brown, low melt-ing solid or viscous liquid.

>  <Pathways>
Membrane Transporter/Ion Channel

>  <Target>
Sodium Channel inhibitor

>  <Receptor>
Sodium channel

>  <Reference>
1. Cao Z, et al. J Pharmacol Exp Ther. 2011, 336(1):197-205.

$$$$
23239-51-2
  Mrv1561503291623562D          

 23 22  0  0  1  0            999 V2000
    0.6124    0.2750    0.0000 C   0  0  0  0  0  0  0  0  0  0  0  0
   -0.1021    0.6875    0.0000 N   0  0  0  0  0  0  0  0  0  0  0  0
   -0.8165    0.2750    0.0000 C   0  0  0  0  0  0  0  0  0  0  0  0
   -1.5310    0.6875    0.0000 C   0  0  0  0  0  0  0  0  0  0  0  0
   -2.2455    0.2750    0.0000 C   0  0  0  0  0  0  0  0  0  0  0  0
   -2.2455   -0.5500    0.0000 C   0  0  0  0  0  0  0  0  0  0  0  0
   -2.9600   -0.9625    0.0000 C   0  0  0  0  0  0  0  0  0  0  0  0
   -3.6744   -0.5500    0.0000 C   0  0  0  0  0  0  0  0  0  0  0  0
   -4.3889   -0.9625    0.0000 O   0  0  0  0  0  0  0  0  0  0  0  0
   -3.6744    0.2750    0.0000 C   0  0  0  0  0  0  0  0  0  0  0  0
   -2.9600    0.6875    0.0000 C   0  0  0  0  0  0  0  0  0  0  0  0
    1.3269    0.6875    0.0000 C   0  0  0  0  0  0  0  0  0  0  0  0
    1.3269    1.5125    0.0000 O   0  0  0  0  0  0  0  0  0  0  0  0
    2.0413    0.2750    0.0000 C   0  0  0  0  0  0  0  0  0  0  0  0
    2.7558    0.6875    0.0000 C   0  0  0  0  0  0  0  0  0  0  0  0
    3.4703    0.2750    0.0000 C   0  0  0  0  0  0  0  0  0  0  0  0
    3.4703   -0.5500    0.0000 C   0  0  0  0  0  0  0  0  0  0  0  0
    4.1848   -0.9625    0.0000 O   0  0  0  0  0  0  0  0  0  0  0  0
    2.7558   -0.9625    0.0000 C   0  0  0  0  0  0  0  0  0  0  0  0
    2.0413   -0.5500    0.0000 C   0  0  0  0  0  0  0  0  0  0  0  0
    0.6124   -0.5500    0.0000 C   0  0  0  0  0  0  0  0  0  0  0  0
    7.3669    0.0000    0.0000 H   0  3  0  0  0  0  0  0  0  0  0  0
    6.5419    0.0000    0.0000 Cl  0  5  0  0  0  0  0  0  0  0  0  0
  1  2  1  0  0  0  0
  2  3  1  0  0  0  0
  3  4  1  0  0  0  0
  4  5  1  0  0  0  0
  5  6  2  0  0  0  0
  6  7  1  0  0  0  0
  7  8  2  0  0  0  0
  8  9  1  0  0  0  0
  8 10  1  0  0  0  0
 10 11  2  0  0  0  0
  5 11  1  0  0  0  0
  1 12  1  0  0  0  0
 12 13  1  0  0  0  0
 12 14  1  0  0  0  0
 14 15  2  0  0  0  0
 15 16  1  0  0  0  0
 16 17  2  0  0  0  0
 17 18  1  0  0  0  0
 17 19  1  0  0  0  0
 19 20  2  0  0  0  0
 14 20  1  0  0  0  0
  1 21  1  0  0  0  0
M  CHG  2  22   1  23  -1
M  END
>  <Name>
Ritodrine HCl

>  <CAS>
23239-51-2

>  <Formula>
C17H21NO3.HCl

>  <MolWt>
323.82 

>  <Bioactivity>
Ritodrine HCl is a ?-2 adrenergic receptor agonist.Ritodrine is a tocolytic drug, used to stop premature labor. Ritodrine can significantly prolong a short interval more quickly but with relatively more side effects than magnesium sulphate. 

>  <Pathways>
GPCR/G Protein

>  <Target>
Adrenergic Receptor

>  <Receptor>
?-adrenergic receptor

>  <Reference>
1. Tanaka N, et al. J Med Chem. 2001 Apr 26;44(9):1436-45.

$$$$
T1564
  Mrv1561503291623562D          

  5  4  0  0  0  0            999 V2000
    1.1000    0.0000    0.0000 Pt  0  0  0  0  0  0  0  0  0  0  0  0
    1.1000   -1.1000    0.0000 N   0  0  0  0  0  0  0  0  0  0  0  0
    1.1000    1.1000    0.0000 Cl  0  0  0  0  0  0  0  0  0  0  0  0
    2.2000   -0.0000    0.0000 Cl  0  0  0  0  0  0  0  0  0  0  0  0
    0.0000    0.0000    0.0000 N   0  0  0  0  0  0  0  0  0  0  0  0
  2  1  8  0  0  0  0
  3  1  8  0  0  0  0
  4  1  8  0  0  0  0
  5  1  8  0  0  0  0
M  STY  4   1 DAT   2 DAT   3 DAT   4 DAT
M  SAL   1  2   2   1
M  SDT   1 MRV_COORDINATE_BOND_TYPE                              
M  SDD   1     0.0000    0.0000    DR    ALL  0       0  
M  SED   1 1
M  SAL   2  2   3   1
M  SDT   2 MRV_COORDINATE_BOND_TYPE                              
M  SDD   2     0.0000    0.0000    DR    ALL  0       0  
M  SED   2 2
M  SAL   3  2   4   1
M  SDT   3 MRV_COORDINATE_BOND_TYPE                              
M  SDD   3     0.0000    0.0000    DR    ALL  0       0  
M  SED   3 3
M  SAL   4  2   5   1
M  SDT   4 MRV_COORDINATE_BOND_TYPE                              
M  SDD   4     0.0000    0.0000    DR    ALL  0       0  
M  SED   4 4
M  END
>  <Name>
Cisplatin

>  <CAS>
15663-27-1

>  <Formula>
H6Cl2N2Pt

>  <MolWt>
300.05 

>  <Bioactivity>
Cisplatin is an inorganic platinum complex, which is able to inhibit DNA synthesis by conforming DNA adducts in tumor cells.

>  <Pathways>
Apoptosis; DNA Damage/DNA Repair; Proteases/Proteasome 

>  <Target>
Caspase activator;DNA/RNA Synthesis inhibitor

>  <Receptor>
Caspase3, caspase9;conforming DNA adducts

>  <Reference>
1. Siddik ZH. Oncogene, 2003, 22(47), 7265-7279.

$$$$
635-41-6
  Mrv1561503291623562D          

 20 21  0  0  0  0            999 V2000
   -0.0000   -1.6500    0.0000 C   0  0  0  0  0  0  0  0  0  0  0  0
   -0.0000   -2.4750    0.0000 C   0  0  0  0  0  0  0  0  0  0  0  0
    0.7145   -2.8875    0.0000 C   0  0  0  0  0  0  0  0  0  0  0  0
    1.4289   -2.4750    0.0000 N   0  0  0  0  0  0  0  0  0  0  0  0
    1.4289   -1.6500    0.0000 C   0  0  0  0  0  0  0  0  0  0  0  0
    2.1434   -1.2375    0.0000 C   0  0  0  0  0  0  0  0  0  0  0  0
    2.8579   -1.6500    0.0000 O   0  0  0  0  0  0  0  0  0  0  0  0
    2.8579   -2.4750    0.0000 C   0  0  0  0  0  0  0  0  0  0  0  0
    2.1434   -2.8875    0.0000 C   0  0  0  0  0  0  0  0  0  0  0  0
    0.7145   -3.7125    0.0000 O   0  0  0  0  0  0  0  0  0  0  0  0
   -0.7145   -2.8875    0.0000 C   0  0  0  0  0  0  0  0  0  0  0  0
   -1.4289   -2.4750    0.0000 C   0  0  0  0  0  0  0  0  0  0  0  0
   -2.1434   -2.8875    0.0000 O   0  0  0  0  0  0  0  0  0  0  0  0
   -2.8579   -2.4750    0.0000 C   0  0  0  0  0  0  0  0  0  0  0  0
   -1.4289   -1.6500    0.0000 C   0  0  0  0  0  0  0  0  0  0  0  0
   -0.7145   -1.2375    0.0000 C   0  0  0  0  0  0  0  0  0  0  0  0
   -0.7145   -0.4125    0.0000 O   0  0  0  0  0  0  0  0  0  0  0  0
    0.0000    0.0000    0.0000 C   0  0  0  0  0  0  0  0  0  0  0  0
   -2.1434   -1.2375    0.0000 O   0  0  0  0  0  0  0  0  0  0  0  0
   -2.8579   -1.6500    0.0000 C   0  0  0  0  0  0  0  0  0  0  0  0
  1  2  2  0  0  0  0
  2  3  1  0  0  0  0
  3  4  1  0  0  0  0
  4  5  1  0  0  0  0
  5  6  1  0  0  0  0
  6  7  1  0  0  0  0
  7  8  1  0  0  0  0
  8  9  1  0  0  0  0
  4  9  1  0  0  0  0
  3 10  2  0  0  0  0
  2 11  1  0  0  0  0
 11 12  2  0  0  0  0
 12 13  1  0  0  0  0
 13 14  1  0  0  0  0
 12 15  1  0  0  0  0
 15 16  2  0  0  0  0
  1 16  1  0  0  0  0
 16 17  1  0  0  0  0
 17 18  1  0  0  0  0
 15 19  1  0  0  0  0
 19 20  1  0  0  0  0
M  END
>  <Name>
Trimetozine

>  <CAS>
635-41-6

>  <Formula>
C14H19NO5

>  <MolWt>
281.31 

>  <Bioactivity>
Trimetozine is a sedative that has been marketed in Europe since 1959. It also has mild tranquilizing effects and has been used in the treatment of anxiety.

>  <Pathways>
Neuroscience

>  <Target>
Others

>  <Receptor>
Others

>  <Reference>
1. Shpak VM, Shcheglova AIu. Pediatriia. 1968 Aug;47(8):76-7.

$$$$
17692-71-6
  Mrv1561503291623562D          

 17 18  0  0  0  0            999 V2000
   -1.4289    0.0000    0.0000 C   0  0  0  0  0  0  0  0  0  0  0  0
   -0.7145   -0.4125    0.0000 O   0  0  0  0  0  0  0  0  0  0  0  0
   -0.7145   -1.2375    0.0000 C   0  0  0  0  0  0  0  0  0  0  0  0
   -0.0000   -1.6500    0.0000 C   0  0  0  0  0  0  0  0  0  0  0  0
   -0.0000   -2.4750    0.0000 C   0  0  0  0  0  0  0  0  0  0  0  0
    0.7145   -2.8875    0.0000 C   0  0  0  0  0  0  0  0  0  0  0  0
    0.7145   -3.7125    0.0000 S   0  0  0  0  0  0  0  0  0  0  0  0
    1.4289   -2.4750    0.0000 N   0  0  0  0  0  0  0  0  0  0  0  0
    1.4289   -1.6500    0.0000 C   0  0  0  0  0  0  0  0  0  0  0  0
    2.1434   -1.2375    0.0000 C   0  0  0  0  0  0  0  0  0  0  0  0
    2.8579   -1.6500    0.0000 O   0  0  0  0  0  0  0  0  0  0  0  0
    2.8579   -2.4750    0.0000 C   0  0  0  0  0  0  0  0  0  0  0  0
    2.1434   -2.8875    0.0000 C   0  0  0  0  0  0  0  0  0  0  0  0
   -0.7145   -2.8875    0.0000 C   0  0  0  0  0  0  0  0  0  0  0  0
   -1.4289   -2.4750    0.0000 C   0  0  0  0  0  0  0  0  0  0  0  0
   -1.4289   -1.6500    0.0000 C   0  0  0  0  0  0  0  0  0  0  0  0
   -2.1434   -1.2375    0.0000 O   0  0  0  0  0  0  0  0  0  0  0  0
  1  2  1  0  0  0  0
  2  3  1  0  0  0  0
  3  4  2  0  0  0  0
  4  5  1  0  0  0  0
  5  6  2  0  0  0  0
  6  7  1  0  0  0  0
  6  8  1  0  0  0  0
  8  9  1  0  0  0  0
  9 10  1  0  0  0  0
 10 11  1  0  0  0  0
 11 12  1  0  0  0  0
 12 13  1  0  0  0  0
  8 13  1  0  0  0  0
  5 14  1  0  0  0  0
 14 15  2  0  0  0  0
 15 16  1  0  0  0  0
  3 16  1  0  0  0  0
 16 17  2  0  0  0  0
M  END
>  <Name>
Vanitiolide

>  <CAS>
17692-71-6

>  <Formula>
C12H15NO3S

>  <MolWt>
253.32 

>  <Bioactivity>
it is pale yellow crystalline powder, used as cholagogue.

>  <Pathways>
Others

>  <Target>
Others

>  <Receptor>
Others

>  <Reference>
N

$$$$
63-25-2
  Mrv1561503291623562D          

 15 16  0  0  0  0            999 V2000
    1.4289   -1.6500    0.0000 C   0  0  0  0  0  0  0  0  0  0  0  0
    0.7145   -1.2375    0.0000 C   0  0  0  0  0  0  0  0  0  0  0  0
    0.7145   -0.4125    0.0000 C   0  0  0  0  0  0  0  0  0  0  0  0
    1.4289   -0.0000    0.0000 C   0  0  0  0  0  0  0  0  0  0  0  0
    2.1434   -0.4125    0.0000 C   0  0  0  0  0  0  0  0  0  0  0  0
    2.8579   -0.0000    0.0000 C   0  0  0  0  0  0  0  0  0  0  0  0
    3.5724   -0.4125    0.0000 C   0  0  0  0  0  0  0  0  0  0  0  0
    3.5724   -1.2375    0.0000 C   0  0  0  0  0  0  0  0  0  0  0  0
    2.8579   -1.6500    0.0000 C   0  0  0  0  0  0  0  0  0  0  0  0
    2.1434   -1.2375    0.0000 C   0  0  0  0  0  0  0  0  0  0  0  0
    2.8579   -2.4750    0.0000 O   0  0  0  0  0  0  0  0  0  0  0  0
    3.5724   -2.8875    0.0000 C   0  0  0  0  0  0  0  0  0  0  0  0
    3.5724   -3.7125    0.0000 N   0  0  0  0  0  0  0  0  0  0  0  0
    4.2868   -4.1250    0.0000 C   0  0  0  0  0  0  0  0  0  0  0  0
    4.2868   -2.4750    0.0000 O   0  0  0  0  0  0  0  0  0  0  0  0
  1  2  2  0  0  0  0
  2  3  1  0  0  0  0
  3  4  2  0  0  0  0
  4  5  1  0  0  0  0
  5  6  2  0  0  0  0
  6  7  1  0  0  0  0
  7  8  2  0  0  0  0
  8  9  1  0  0  0  0
  9 10  2  0  0  0  0
  1 10  1  0  0  0  0
  5 10  1  0  0  0  0
  9 11  1  0  0  0  0
 11 12  1  0  0  0  0
 12 13  1  0  0  0  0
 13 14  1  0  0  0  0
 12 15  2  0  0  0  0
M  END
>  <Name>
Carbaryl

>  <CAS>
63-25-2

>  <Formula>
C12H11NO2

>  <MolWt>
201.22 

>  <Bioactivity>
A carbamate insecticide and parasiticide. It is a potent anticholinesterase agent belonging to the carbamate group of reversible cholinesterase inhibitors. It has a particularly low toxicity from dermal absorption and is used for control of head lice in some countries.

>  <Pathways>
Neuroscience

>  <Target>
ChE inhibitor

>  <Receptor>
ChE

>  <Reference>
1. Wang HP, et al. Environ Toxicol. 2014 Oct; 29(10):1193-200.

$$$$
T1119
  Mrv1561503291623562D          

 13 14  0  0  1  0            999 V2000
   -0.1435   -1.3654    0.0000 C   0  0  1  0  0  0  0  0  0  0  0  0
    0.6411   -1.1104    0.0000 C   0  0  0  0  0  0  0  0  0  0  0  0
    0.6411   -0.2854    0.0000 C   0  0  0  0  0  0  0  0  0  0  0  0
   -0.1435   -0.0305    0.0000 C   0  0  0  0  0  0  0  0  0  0  0  0
   -0.6284   -0.6979    0.0000 C   0  0  0  0  0  0  0  0  0  0  0  0
    1.3556    0.1271    0.0000 C   0  0  0  0  0  0  0  0  0  0  0  0
    2.0701   -0.2854    0.0000 C   0  0  0  0  0  0  0  0  0  0  0  0
    2.0701   -1.1104    0.0000 C   0  0  0  0  0  0  0  0  0  0  0  0
    1.3556   -1.5229    0.0000 C   0  0  0  0  0  0  0  0  0  0  0  0
   -0.3984   -2.1500    0.0000 N   0  0  0  0  0  0  0  0  0  0  0  0
   -1.2054   -2.3215    0.0000 C   0  0  0  0  0  0  0  0  0  0  0  0
   -1.4604   -3.1062    0.0000 C   0  0  0  0  0  0  0  0  0  0  0  0
   -1.7153   -3.8908    0.0000 C   0  0  0  0  0  0  0  0  0  0  0  0
  1  2  1  0  0  0  0
  2  3  2  0  0  0  0
  3  4  1  0  0  0  0
  4  5  1  0  0  0  0
  1  5  1  0  0  0  0
  3  6  1  0  0  0  0
  6  7  2  0  0  0  0
  7  8  1  0  0  0  0
  8  9  2  0  0  0  0
  2  9  1  0  0  0  0
  1 10  1  6  0  0  0
 10 11  1  0  0  0  0
 11 12  1  0  0  0  0
 12 13  3  0  0  0  0
M  END
>  <Name>
Rasagiline

>  <CAS>
136236-51-6

>  <Formula>
C12H13N

>  <MolWt>
171.24 

>  <Bioactivity>
Rasagiline is an irreversible inhibitor of monoamine oxidase and is used as a monotherapy in early Parkinson's disease or as an adjunct therapy in more advanced cases.


>  <Pathways>
Apoptosis;Metabolism

>  <Target>
Bcl-2 activator; MAO inhibitor

>  <Receptor>
Bcl-2;MAO-B, MAO-A

>  <Reference>
1. Naoi M, Maruyama W. Expert Rev Neurother. 2009 Aug;9(8):1233-50. 

$$$$
62-73-7
  Mrv1561503291623562D          

 11 10  0  0  0  0            999 V2000
    3.3000    1.4289    0.0000 C   0  0  0  0  0  0  0  0  0  0  0  0
    2.8875    0.7145    0.0000 O   0  0  0  0  0  0  0  0  0  0  0  0
    2.0625    0.7145    0.0000 P   0  0  0  0  0  0  0  0  0  0  0  0
    1.2375    0.7145    0.0000 O   0  0  0  0  0  0  0  0  0  0  0  0
    0.8250    0.0000    0.0000 C   0  0  0  0  0  0  0  0  0  0  0  0
    0.0000    0.0000    0.0000 C   0  0  0  0  0  0  0  0  0  0  0  0
   -0.4125   -0.7145    0.0000 Cl  0  0  0  0  0  0  0  0  0  0  0  0
   -0.4125    0.7145    0.0000 Cl  0  0  0  0  0  0  0  0  0  0  0  0
    2.0625    1.5395    0.0000 O   0  0  0  0  0  0  0  0  0  0  0  0
    1.3480    1.9520    0.0000 C   0  0  0  0  0  0  0  0  0  0  0  0
    2.0625   -0.1105    0.0000 O   0  0  0  0  0  0  0  0  0  0  0  0
  1  2  1  0  0  0  0
  2  3  1  0  0  0  0
  3  4  1  0  0  0  0
  4  5  1  0  0  0  0
  5  6  2  0  0  0  0
  6  7  1  0  0  0  0
  6  8  1  0  0  0  0
  3  9  1  0  0  0  0
  9 10  1  0  0  0  0
  3 11  2  0  0  0  0
M  END
>  <Name>
Dichlorvos

>  <CAS>
62-73-7

>  <Formula>
C4H7Cl2O4P

>  <MolWt>
220.98 

>  <Bioactivity>
it belongs to organophosphate compounds,  used as a kind of common environmental health insecticide.

>  <Pathways>
Neuroscience

>  <Target>
AChE inhibitor

>  <Receptor>
AChE

>  <Reference>
1. JEANDIDIER P. Ann Med Nancy. 1964 Aug-Sep;42:1062-5.

$$$$
33089-61-1
  Mrv1561503291623562D          

 22 23  0  0  0  0            999 V2000
    4.2868   -4.1250    0.0000 C   0  0  0  0  0  0  0  0  0  0  0  0
    4.2868   -4.9500    0.0000 C   0  0  0  0  0  0  0  0  0  0  0  0
    3.5724   -5.3625    0.0000 C   0  0  0  0  0  0  0  0  0  0  0  0
    2.8579   -4.9500    0.0000 C   0  0  0  0  0  0  0  0  0  0  0  0
    2.8579   -4.1250    0.0000 C   0  0  0  0  0  0  0  0  0  0  0  0
    3.5724   -3.7125    0.0000 C   0  0  0  0  0  0  0  0  0  0  0  0
    3.5724   -2.8875    0.0000 N   0  0  0  0  0  0  0  0  0  0  0  0
    4.2868   -2.4750    0.0000 C   0  0  0  0  0  0  0  0  0  0  0  0
    4.2868   -1.6500    0.0000 N   0  0  0  0  0  0  0  0  0  0  0  0
    5.0013   -1.2375    0.0000 C   0  0  0  0  0  0  0  0  0  0  0  0
    5.0013   -0.4125    0.0000 N   0  0  0  0  0  0  0  0  0  0  0  0
    5.7158   -0.0000    0.0000 C   0  0  0  0  0  0  0  0  0  0  0  0
    5.7158    0.8250    0.0000 C   0  0  0  0  0  0  0  0  0  0  0  0
    6.4302    1.2375    0.0000 C   0  0  0  0  0  0  0  0  0  0  0  0
    7.1447    0.8250    0.0000 C   0  0  0  0  0  0  0  0  0  0  0  0
    7.8592    1.2375    0.0000 C   0  0  0  0  0  0  0  0  0  0  0  0
    7.1447   -0.0000    0.0000 C   0  0  0  0  0  0  0  0  0  0  0  0
    6.4302   -0.4125    0.0000 C   0  0  0  0  0  0  0  0  0  0  0  0
    5.0013    1.2375    0.0000 C   0  0  0  0  0  0  0  0  0  0  0  0
    3.5724   -1.2375    0.0000 C   0  0  0  0  0  0  0  0  0  0  0  0
    2.1434   -3.7125    0.0000 C   0  0  0  0  0  0  0  0  0  0  0  0
    3.5724   -6.1875    0.0000 C   0  0  0  0  0  0  0  0  0  0  0  0
  1  2  2  0  0  0  0
  2  3  1  0  0  0  0
  3  4  2  0  0  0  0
  4  5  1  0  0  0  0
  5  6  2  0  0  0  0
  1  6  1  0  0  0  0
  7  6  1  4  0  0  0
  7  8  2  0  0  0  0
  8  9  1  0  0  0  0
 10  9  1  4  0  0  0
 10 11  2  0  0  0  0
 11 12  1  0  0  0  0
 12 13  2  0  0  0  0
 13 14  1  0  0  0  0
 14 15  2  0  0  0  0
 15 16  1  0  0  0  0
 15 17  1  0  0  0  0
 17 18  2  0  0  0  0
 12 18  1  0  0  0  0
 13 19  1  0  0  0  0
  9 20  1  0  0  0  0
  5 21  1  0  0  0  0
  3 22  1  0  0  0  0
M  END
>  <Name>
Amitraz

>  <CAS>
33089-61-1

>  <Formula>
C19H23N3

>  <MolWt>
293.41 

>  <Bioactivity>
Amitraz is a non-systemic acaricide and insecticide.

>  <Pathways>
GPCR/G Protein

>  <Target>
Adrenergic Receptor agonist

>  <Receptor>
?-adrenergic receptor

>  <Reference>
1. Del Pino J, et al. Chem Res Toxicol. 2015 Jun 15;28(6):1073-94. 

$$$$
481-29-8
  Mrv1561503291623562D          

 21 24  0  0  1  0            999 V2000
    6.4511    0.5577    0.0000 C   0  0  1  0  0  0  0  0  0  0  0  0
    6.1708   -0.2182    0.0000 C   0  0  0  0  0  0  0  0  0  0  0  0
    5.3587   -0.3634    0.0000 C   0  0  0  0  0  0  0  0  0  0  0  0
    4.8269    0.2673    0.0000 C   0  0  1  0  0  0  0  0  0  0  0  0
    5.1072    1.0432    0.0000 C   0  0  2  0  0  0  0  0  0  0  0  0
    5.9193    1.1884    0.0000 C   0  0  0  0  0  0  0  0  0  0  0  0
    4.5754    1.6739    0.0000 C   0  0  0  0  0  0  0  0  0  0  0  0
    3.7633    1.5287    0.0000 C   0  0  0  0  0  0  0  0  0  0  0  0
    3.4830    0.7528    0.0000 C   0  0  2  0  0  0  0  0  0  0  0  0
    4.0148    0.1221    0.0000 C   0  0  2  0  0  0  0  0  0  0  0  0
    3.7345   -0.6539    0.0000 C   0  0  0  0  0  0  0  0  0  0  0  0
    2.9224   -0.7991    0.0000 C   0  0  0  0  0  0  0  0  0  0  0  0
    2.3905   -0.1684    0.0000 C   0  0  1  0  0  0  0  0  0  0  0  0
    2.6708    0.6076    0.0000 C   0  0  1  0  0  0  0  0  0  0  0  0
    2.0195    1.1139    0.0000 C   0  0  0  0  0  0  0  0  0  0  0  0
    1.3367    0.6509    0.0000 C   0  0  0  0  0  0  0  0  0  0  0  0
    1.5660   -0.1416    0.0000 C   0  0  0  0  0  0  0  0  0  0  0  0
    1.0596   -0.7929    0.0000 O   0  0  0  0  0  0  0  0  0  0  0  0
    2.0307   -0.9107    0.0000 C   0  0  0  0  0  0  0  0  0  0  0  0
    4.5466   -0.5086    0.0000 C   0  0  0  0  0  0  0  0  0  0  0  0
    7.2632    0.7029    0.0000 O   0  0  0  0  0  0  0  0  0  0  0  0
  1  2  1  0  0  0  0
  2  3  1  0  0  0  0
  3  4  1  0  0  0  0
  4  5  1  0  0  0  0
  5  6  1  0  0  0  0
  1  6  1  0  0  0  0
  5  7  1  1  0  0  0
  7  8  1  0  0  0  0
  9  8  1  6  0  0  0
  9 10  1  0  0  0  0
  4 10  1  0  0  0  0
 10 11  1  1  0  0  0
 11 12  1  0  0  0  0
 12 13  1  0  0  0  0
 13 14  1  0  0  0  0
  9 14  1  0  0  0  0
 14 15  1  1  0  0  0
 15 16  1  0  0  0  0
 16 17  1  0  0  0  0
 13 17  1  0  0  0  0
 17 18  2  0  0  0  0
 13 19  1  1  0  0  0
  4 20  1  1  0  0  0
  1 21  1  1  0  0  0
M  END
>  <Name>
Epiandrosterone

>  <CAS>
481-29-8

>  <Formula>
C19H30O2

>  <MolWt>
290.44 

>  <Bioactivity>
Epiandrosterone is a steroid hormone with weak androgenic activity, is a natural metabolite of DHEA.

>  <Pathways>
Endocrinology/ Hormones

>  <Target>
Androgen Receptor agonist

>  <Receptor>
Androgen/progestogen Receptor

>  <Reference>
1. Gupte SA, et al. J Pharmacol Exp Ther, 2002, 301(1), 299-305.

$$$$
6533-68-2
  Mrv1561503291623562D          

 27 25  0  0  1  0            999 V2000
    2.6162   -1.1386    0.0000 C   0  0  0  0  0  0  0  0  0  0  0  0
    3.3307   -0.7261    0.0000 O   0  0  0  0  0  0  0  0  0  0  0  0
    2.6162   -0.3136    0.0000 C   0  0  0  0  0  0  0  0  0  0  0  0
    1.9712    0.2008    0.0000 C   0  0  0  0  0  0  0  0  0  0  0  0
    1.7395   -0.7261    0.0000 N   0  0  0  0  0  0  0  0  0  0  0  0
    1.9712   -1.6529    0.0000 C   0  0  0  0  0  0  0  0  0  0  0  0
    1.1669   -1.4694    0.0000 C   0  0  0  0  0  0  0  0  0  0  0  0
    0.8089   -0.7261    0.0000 C   0  0  0  0  0  0  0  0  0  0  0  0
   -0.0161   -0.7261    0.0000 O   0  0  0  0  0  0  0  0  0  0  0  0
   -0.4286   -0.0116    0.0000 C   0  0  0  0  0  0  0  0  0  0  0  0
   -0.0161    0.7029    0.0000 O   0  0  0  0  0  0  0  0  0  0  0  0
   -1.2536   -0.0116    0.0000 C   0  0  0  0  0  0  0  0  0  0  0  0
   -1.6661   -0.7261    0.0000 C   0  0  0  0  0  0  0  0  0  0  0  0
   -2.4911   -0.7261    0.0000 O   0  0  0  0  0  0  0  0  0  0  0  0
   -1.6661    0.7029    0.0000 C   0  0  0  0  0  0  0  0  0  0  0  0
   -2.4911    0.7029    0.0000 C   0  0  0  0  0  0  0  0  0  0  0  0
   -2.9036    1.4174    0.0000 C   0  0  0  0  0  0  0  0  0  0  0  0
   -2.4911    2.1318    0.0000 C   0  0  0  0  0  0  0  0  0  0  0  0
   -1.6661    2.1318    0.0000 C   0  0  0  0  0  0  0  0  0  0  0  0
   -1.2536    1.4174    0.0000 C   0  0  0  0  0  0  0  0  0  0  0  0
    1.1669    0.0172    0.0000 C   0  0  0  0  0  0  0  0  0  0  0  0
    0.9549   -0.4711    0.0000 C   0  0  0  0  0  0  0  0  0  0  0  0
    6.5128    0.0000    0.0000 H   0  3  0  0  0  0  0  0  0  0  0  0
    5.6878    0.0000    0.0000 Br  0  5  0  0  0  0  0  0  0  0  0  0
    8.8700    0.0000    0.0000 O   0  0  0  0  0  0  0  0  0  0  0  0
    0.0000   -3.3029    0.0000 O   0  0  0  0  0  0  0  0  0  0  0  0
    2.3571   -3.3029    0.0000 O   0  0  0  0  0  0  0  0  0  0  0  0
  1  2  1  0  0  0  0
  2  3  1  0  0  0  0
  1  3  1  0  0  0  0
  3  4  1  0  0  0  0
  4  5  1  0  0  0  0
  5  6  1  0  0  0  0
  1  6  1  0  0  0  0
  6  7  1  0  0  0  0
  7  8  1  0  0  0  0
  8  9  1  0  0  0  0
  9 10  1  0  0  0  0
 10 11  2  0  0  0  0
 10 12  1  0  0  0  0
 12 13  1  0  0  0  0
 13 14  1  0  0  0  0
 12 15  1  0  0  0  0
 15 16  2  0  0  0  0
 16 17  1  0  0  0  0
 17 18  2  0  0  0  0
 18 19  1  0  0  0  0
 19 20  2  0  0  0  0
 15 20  1  0  0  0  0
  8 21  1  0  0  0  0
  4 21  1  0  0  0  0
  5 22  1  0  0  0  0
M  CHG  2  23   1  24  -1
M  END
>  <Name>
Scopolamine HBr trihydrate

>  <CAS>
6533-68-2

>  <Formula>
C17H22BrNO4

>  <MolWt>
438.31 

>  <Bioactivity>
An alkaloid from SOLANACEAE, especially DATURA and SCOPOLIA. Scopolamine and its quaternary derivatives act as antimuscarinics like ATROPINE, but may have more central nervous system effects. Among the many uses are as an anesthetic premedication, in URINARY INCONTINENCE, in MOTION SICKNESS, as an antispasmodic, and as a mydriatic and cycloplegic. 

>  <Pathways>
Neuroscience

>  <Target>
AChR antagonist

>  <Receptor>
Muscarinic AChR

>  <Reference>
1. Murasaki O, et al. J Pharmacol Exp Ther. 2003 Dec;307(3):995-1000. 

$$$$
320345-99-1
  Mrv1561503291623562D          

 34 37  0  0  0  0            999 V2000
   -2.0374    0.4306    0.0000 C   0  0  0  0  0  0  0  0  0  0  0  0
   -2.0374   -0.3944    0.0000 C   0  0  0  0  0  0  0  0  0  0  0  0
   -1.3229   -0.8069    0.0000 N   0  3  0  0  0  0  0  0  0  0  0  0
   -1.4604   -0.2569    0.0000 C   0  0  0  0  0  0  0  0  0  0  0  0
   -1.4604    0.2931    0.0000 C   0  0  0  0  0  0  0  0  0  0  0  0
   -1.3229    0.8431    0.0000 C   0  0  0  0  0  0  0  0  0  0  0  0
   -0.6085    0.4306    0.0000 C   0  0  0  0  0  0  0  0  0  0  0  0
   -0.6085   -0.3944    0.0000 C   0  0  0  0  0  0  0  0  0  0  0  0
    0.1060    0.8431    0.0000 O   0  0  0  0  0  0  0  0  0  0  0  0
    0.1060    1.6681    0.0000 C   0  0  0  0  0  0  0  0  0  0  0  0
   -0.6085    2.0806    0.0000 O   0  0  0  0  0  0  0  0  0  0  0  0
    0.8205    2.0806    0.0000 C   0  0  0  0  0  0  0  0  0  0  0  0
    1.5350    2.4931    0.0000 C   0  0  0  0  0  0  0  0  0  0  0  0
    1.6212    3.3136    0.0000 C   0  0  0  0  0  0  0  0  0  0  0  0
    2.4282    3.4852    0.0000 C   0  0  0  0  0  0  0  0  0  0  0  0
    2.8407    2.7707    0.0000 C   0  0  0  0  0  0  0  0  0  0  0  0
    2.2886    2.1576    0.0000 S   0  0  0  0  0  0  0  0  0  0  0  0
    0.4080    2.7951    0.0000 C   0  0  0  0  0  0  0  0  0  0  0  0
   -0.4125    2.8814    0.0000 C   0  0  0  0  0  0  0  0  0  0  0  0
   -0.5840    3.6883    0.0000 C   0  0  0  0  0  0  0  0  0  0  0  0
    0.1305    4.1008    0.0000 C   0  0  0  0  0  0  0  0  0  0  0  0
    0.7435    3.5488    0.0000 S   0  0  0  0  0  0  0  0  0  0  0  0
    1.2330    1.3662    0.0000 O   0  0  0  0  0  0  0  0  0  0  0  0
   -1.3229   -1.6319    0.0000 C   0  0  0  0  0  0  0  0  0  0  0  0
   -0.6085   -2.0444    0.0000 C   0  0  0  0  0  0  0  0  0  0  0  0
   -0.6085   -2.8694    0.0000 C   0  0  0  0  0  0  0  0  0  0  0  0
    0.1060   -3.2819    0.0000 O   0  0  0  0  0  0  0  0  0  0  0  0
    0.1060   -4.1069    0.0000 C   0  0  0  0  0  0  0  0  0  0  0  0
    0.8205   -4.5194    0.0000 C   0  0  0  0  0  0  0  0  0  0  0  0
    0.8205   -5.3444    0.0000 C   0  0  0  0  0  0  0  0  0  0  0  0
    0.1060   -5.7569    0.0000 C   0  0  0  0  0  0  0  0  0  0  0  0
   -0.6085   -5.3444    0.0000 C   0  0  0  0  0  0  0  0  0  0  0  0
   -0.6085   -4.5194    0.0000 C   0  0  0  0  0  0  0  0  0  0  0  0
    5.1978    0.0000    0.0000 Br  0  5  0  0  0  0  0  0  0  0  0  0
  1  2  1  0  0  0  0
  2  3  1  0  0  0  0
  3  4  1  0  0  0  0
  4  5  1  0  0  0  0
  5  6  1  0  0  0  0
  1  6  1  0  0  0  0
  6  7  1  0  0  0  0
  7  8  1  0  0  0  0
  3  8  1  0  0  0  0
  7  9  1  0  0  0  0
  9 10  1  0  0  0  0
 10 11  2  0  0  0  0
 10 12  1  0  0  0  0
 12 13  1  0  0  0  0
 13 14  2  0  0  0  0
 14 15  1  0  0  0  0
 15 16  2  0  0  0  0
 16 17  1  0  0  0  0
 13 17  1  0  0  0  0
 12 18  1  0  0  0  0
 18 19  2  0  0  0  0
 19 20  1  0  0  0  0
 20 21  2  0  0  0  0
 21 22  1  0  0  0  0
 18 22  1  0  0  0  0
 12 23  1  0  0  0  0
  3 24  1  0  0  0  0
 24 25  1  0  0  0  0
 25 26  1  0  0  0  0
 26 27  1  0  0  0  0
 27 28  1  0  0  0  0
 28 29  2  0  0  0  0
 29 30  1  0  0  0  0
 30 31  2  0  0  0  0
 31 32  1  0  0  0  0
 32 33  2  0  0  0  0
 28 33  1  0  0  0  0
M  CHG  2   3   1  34  -1
M  END
>  <Name>
Aclidinium bromide

>  <CAS>
320345-99-1

>  <Formula>
C26H30NO4S2.Br

>  <MolWt>
564.55 

>  <Bioactivity>
Aclidinium Bromide inhibits human muscarinic AChR M1, M2, M3, M4 and M5 with Ki of 0.1 nM, 0.14 nM, 0.14 nM, 0.21 nM and 0.16 nM, respectively.

>  <Pathways>
Neuroscience

>  <Target>
AChR antagonist

>  <Receptor>
AChR M1, M2, M3, M4, M5

>  <Reference>
1. Sentellas S, et al. Eur J Pharm Sci, 2010, 39(5), 283-290.

$$$$
51529-01-2
  Mrv1561503291623562D          

 34 33  0  0  0  0            999 V2000
    0.4125    0.0000    0.0000 H   0  3  0  0  0  0  0  0  0  0  0  0
    3.5946    0.0000    0.0000 H   0  3  0  0  0  0  0  0  0  0  0  0
   -0.2620   -4.5375    0.0000 C   0  0  0  0  0  0  0  0  0  0  0  0
   -0.9764   -4.1250    0.0000 N   0  0  0  0  0  0  0  0  0  0  0  0
   -1.6909   -4.5375    0.0000 C   0  0  0  0  0  0  0  0  0  0  0  0
   -2.4054   -4.1250    0.0000 C   0  0  0  0  0  0  0  0  0  0  0  0
   -2.4054   -3.3000    0.0000 N   0  0  0  0  0  0  0  0  0  0  0  0
   -1.6909   -2.8875    0.0000 C   0  0  0  0  0  0  0  0  0  0  0  0
   -0.9764   -3.3000    0.0000 C   0  0  0  0  0  0  0  0  0  0  0  0
   -3.1199   -2.8875    0.0000 C   0  0  0  0  0  0  0  0  0  0  0  0
   -3.1199   -2.0625    0.0000 C   0  0  0  0  0  0  0  0  0  0  0  0
   -3.8343   -1.6500    0.0000 O   0  0  0  0  0  0  0  0  0  0  0  0
   -0.2620   -5.3625    0.0000 C   0  0  0  0  0  0  0  0  0  0  0  0
    0.4525   -5.7750    0.0000 C   0  0  0  0  0  0  0  0  0  0  0  0
    0.4525   -6.6000    0.0000 C   0  0  0  0  0  0  0  0  0  0  0  0
    1.1670   -7.0125    0.0000 C   0  0  0  0  0  0  0  0  0  0  0  0
    1.1670   -7.8375    0.0000 C   0  0  0  0  0  0  0  0  0  0  0  0
    0.4525   -8.2500    0.0000 S   0  0  0  0  0  0  0  0  0  0  0  0
   -0.2620   -7.8375    0.0000 C   0  0  0  0  0  0  0  0  0  0  0  0
   -0.9764   -8.2500    0.0000 C   0  0  0  0  0  0  0  0  0  0  0  0
   -1.6909   -7.8375    0.0000 C   0  0  0  0  0  0  0  0  0  0  0  0
   -1.6909   -7.0125    0.0000 C   0  0  0  0  0  0  0  0  0  0  0  0
   -0.9764   -6.6000    0.0000 C   0  0  0  0  0  0  0  0  0  0  0  0
   -0.2620   -7.0125    0.0000 C   0  0  0  0  0  0  0  0  0  0  0  0
    1.8814   -8.2500    0.0000 C   0  0  0  0  0  0  0  0  0  0  0  0
    2.5959   -7.8375    0.0000 C   0  0  0  0  0  0  0  0  0  0  0  0
    2.5959   -7.0125    0.0000 C   0  0  0  0  0  0  0  0  0  0  0  0
    1.8814   -6.6000    0.0000 C   0  0  0  0  0  0  0  0  0  0  0  0
    3.3104   -6.6000    0.0000 C   0  0  0  0  0  0  0  0  0  0  0  0
    4.0249   -6.1875    0.0000 F   0  0  0  0  0  0  0  0  0  0  0  0
    3.7229   -7.3145    0.0000 F   0  0  0  0  0  0  0  0  0  0  0  0
    2.8979   -5.8855    0.0000 F   0  0  0  0  0  0  0  0  0  0  0  0
   -0.4125    0.0000    0.0000 Cl  0  5  0  0  0  0  0  0  0  0  0  0
    2.7696    0.0000    0.0000 Cl  0  5  0  0  0  0  0  0  0  0  0  0
  3  4  1  0  0  0  0
  4  5  1  0  0  0  0
  5  6  1  0  0  0  0
  6  7  1  0  0  0  0
  7  8  1  0  0  0  0
  8  9  1  0  0  0  0
  4  9  1  0  0  0  0
  7 10  1  0  0  0  0
 10 11  1  0  0  0  0
 11 12  1  0  0  0  0
  3 13  1  0  0  0  0
 13 14  1  0  0  0  0
 14 15  2  0  0  0  0
 15 16  1  0  0  0  0
 16 17  2  0  0  0  0
 17 18  1  0  0  0  0
 18 19  1  0  0  0  0
 19 20  2  0  0  0  0
 20 21  1  0  0  0  0
 21 22  2  0  0  0  0
 22 23  1  0  0  0  0
 23 24  2  0  0  0  0
 15 24  1  0  0  0  0
 19 24  1  0  0  0  0
 17 25  1  0  0  0  0
 25 26  2  0  0  0  0
 26 27  1  0  0  0  0
 27 28  2  0  0  0  0
 16 28  1  0  0  0  0
 27 29  1  0  0  0  0
 29 30  1  0  0  0  0
 29 31  1  0  0  0  0
 29 32  1  0  0  0  0
M  CHG  4   1   1   2   1  33  -1  34  -1
M  END
>  <Name>
Flupenthixol 2HCl

>  <CAS>
51529-01-2

>  <Formula>
C23H27Cl2F3N2OS

>  <MolWt>
507.44 

>  <Bioactivity>
Flupenthixol is a strong dopamine receptor antagonist.

>  <Pathways>
Neuroscience

>  <Target>
Dopamine Receptor antagonist

>  <Receptor>
dopamine receptor

>  <Reference>
1. Dwivedi VS, et al. Curr Med Res Opin. 1990;12(3):191-7.

$$$$
3819-00-9
  Mrv1561503291623562D          

 29 32  0  0  0  0            999 V2000
    3.5724    1.2375    0.0000 C   0  0  0  0  0  0  0  0  0  0  0  0
    4.2868    0.8250    0.0000 C   0  0  0  0  0  0  0  0  0  0  0  0
    5.0013    1.2375    0.0000 C   0  0  0  0  0  0  0  0  0  0  0  0
    5.7158    0.8250    0.0000 C   0  0  0  0  0  0  0  0  0  0  0  0
    5.0013    2.0625    0.0000 O   0  0  0  0  0  0  0  0  0  0  0  0
    4.2868   -0.0000    0.0000 C   0  0  0  0  0  0  0  0  0  0  0  0
    3.5724   -0.4125    0.0000 C   0  0  0  0  0  0  0  0  0  0  0  0
    2.8579   -0.0000    0.0000 C   0  0  0  0  0  0  0  0  0  0  0  0
    2.8579    0.8250    0.0000 C   0  0  0  0  0  0  0  0  0  0  0  0
    2.1434    1.2375    0.0000 N   0  0  0  0  0  0  0  0  0  0  0  0
    1.4289    0.8250    0.0000 C   0  0  0  0  0  0  0  0  0  0  0  0
    1.4289   -0.0000    0.0000 C   0  0  0  0  0  0  0  0  0  0  0  0
    0.7145   -0.4125    0.0000 C   0  0  0  0  0  0  0  0  0  0  0  0
   -0.0000    0.0000    0.0000 C   0  0  0  0  0  0  0  0  0  0  0  0
    0.0000    0.8250    0.0000 C   0  0  0  0  0  0  0  0  0  0  0  0
    0.7145    1.2375    0.0000 C   0  0  0  0  0  0  0  0  0  0  0  0
    2.1434   -0.4125    0.0000 S   0  0  0  0  0  0  0  0  0  0  0  0
    2.1434    2.0625    0.0000 C   0  0  0  0  0  0  0  0  0  0  0  0
    2.8579    2.4750    0.0000 C   0  0  0  0  0  0  0  0  0  0  0  0
    2.8579    3.3000    0.0000 C   0  0  0  0  0  0  0  0  0  0  0  0
    3.5724    3.7125    0.0000 N   0  0  0  0  0  0  0  0  0  0  0  0
    3.5724    4.5375    0.0000 C   0  0  0  0  0  0  0  0  0  0  0  0
    4.2868    4.9500    0.0000 C   0  0  0  0  0  0  0  0  0  0  0  0
    5.0013    4.5375    0.0000 C   0  0  0  0  0  0  0  0  0  0  0  0
    5.7158    4.9500    0.0000 C   0  0  0  0  0  0  0  0  0  0  0  0
    6.4302    4.5375    0.0000 C   0  0  0  0  0  0  0  0  0  0  0  0
    7.1447    4.9500    0.0000 O   0  0  0  0  0  0  0  0  0  0  0  0
    5.0013    3.7125    0.0000 C   0  0  0  0  0  0  0  0  0  0  0  0
    4.2868    3.3000    0.0000 C   0  0  0  0  0  0  0  0  0  0  0  0
  1  2  2  0  0  0  0
  2  3  1  0  0  0  0
  3  4  1  0  0  0  0
  3  5  2  0  0  0  0
  2  6  1  0  0  0  0
  6  7  2  0  0  0  0
  7  8  1  0  0  0  0
  8  9  2  0  0  0  0
  1  9  1  0  0  0  0
  9 10  1  0  0  0  0
 10 11  1  0  0  0  0
 11 12  2  0  0  0  0
 12 13  1  0  0  0  0
 13 14  2  0  0  0  0
 14 15  1  0  0  0  0
 15 16  2  0  0  0  0
 11 16  1  0  0  0  0
 12 17  1  0  0  0  0
  8 17  1  0  0  0  0
 10 18  1  0  0  0  0
 18 19  1  0  0  0  0
 19 20  1  0  0  0  0
 20 21  1  0  0  0  0
 21 22  1  0  0  0  0
 22 23  1  0  0  0  0
 23 24  1  0  0  0  0
 24 25  1  0  0  0  0
 25 26  1  0  0  0  0
 26 27  1  0  0  0  0
 24 28  1  0  0  0  0
 28 29  1  0  0  0  0
 21 29  1  0  0  0  0
M  END
>  <Name>
Piperacetazine

>  <CAS>
3819-00-9

>  <Formula>
C24H30N2O2S

>  <MolWt>
410.57 

>  <Bioactivity>
Piperacetazine is an antipsychotic prodrug, used forschizophrenia.

>  <Pathways>
Neuroscience

>  <Target>
5-HT Receptor antagonist;Dopamine Receptor antagonist

>  <Receptor>
5-HT receptor;Dopamine receptor

>  <Reference>
1. Gallant DM, Bishop MP. Curr Ther Res Clin Exp. 1970 Jun;12(6):387-9.

$$$$
32672-69-8
  Mrv1561503291623562D          

 36 39  0  0  0  0            999 V2000
    0.7969    0.3966    0.0000 C   0  0  0  0  0  0  0  0  0  0  0  0
    1.5114    0.8091    0.0000 C   0  0  0  0  0  0  0  0  0  0  0  0
    2.2259    0.3966    0.0000 S   0  0  0  0  0  0  0  0  0  0  0  0
    2.9403    0.8091    0.0000 O   0  0  0  0  0  0  0  0  0  0  0  0
    2.2259   -0.4284    0.0000 C   0  0  0  0  0  0  0  0  0  0  0  0
    1.5114    1.6341    0.0000 C   0  0  0  0  0  0  0  0  0  0  0  0
    0.7969    2.0466    0.0000 C   0  0  0  0  0  0  0  0  0  0  0  0
    0.0824    1.6341    0.0000 C   0  0  0  0  0  0  0  0  0  0  0  0
    0.0824    0.8091    0.0000 C   0  0  0  0  0  0  0  0  0  0  0  0
   -0.6320    0.3966    0.0000 N   0  0  0  0  0  0  0  0  0  0  0  0
   -1.3465    0.8091    0.0000 C   0  0  0  0  0  0  0  0  0  0  0  0
   -2.0610    0.3966    0.0000 C   0  0  0  0  0  0  0  0  0  0  0  0
   -2.7754    0.8091    0.0000 C   0  0  0  0  0  0  0  0  0  0  0  0
   -2.7754    1.6341    0.0000 C   0  0  0  0  0  0  0  0  0  0  0  0
   -2.0610    2.0466    0.0000 C   0  0  0  0  0  0  0  0  0  0  0  0
   -1.3465    1.6341    0.0000 C   0  0  0  0  0  0  0  0  0  0  0  0
   -0.6320    2.0466    0.0000 S   0  0  0  0  0  0  0  0  0  0  0  0
   -0.6320   -0.4284    0.0000 C   0  0  0  0  0  0  0  0  0  0  0  0
    0.0824   -0.8409    0.0000 C   0  0  0  0  0  0  0  0  0  0  0  0
    0.0824   -1.6659    0.0000 C   0  0  0  0  0  0  0  0  0  0  0  0
    0.7969   -2.0784    0.0000 N   0  0  0  0  0  0  0  0  0  0  0  0
    0.7969   -2.9034    0.0000 C   0  0  0  0  0  0  0  0  0  0  0  0
    0.0824   -3.3159    0.0000 C   0  0  0  0  0  0  0  0  0  0  0  0
   -0.6320   -2.9034    0.0000 C   0  0  0  0  0  0  0  0  0  0  0  0
   -0.6320   -2.0784    0.0000 C   0  0  0  0  0  0  0  0  0  0  0  0
    1.5114   -1.6659    0.0000 C   0  0  0  0  0  0  0  0  0  0  0  0
    4.8260   -0.3300    0.0000 C   0  0  0  0  0  0  0  0  0  0  0  0
    5.5405    0.0825    0.0000 C   0  0  0  0  0  0  0  0  0  0  0  0
    5.5405    0.9075    0.0000 S   0  0  0  0  0  0  0  0  0  0  0  0
    5.5405    1.7325    0.0000 O   0  0  0  0  0  0  0  0  0  0  0  0
    4.7155    0.9075    0.0000 O   0  0  0  0  0  0  0  0  0  0  0  0
    6.3655    0.9075    0.0000 O   0  0  0  0  0  0  0  0  0  0  0  0
    6.2550   -0.3300    0.0000 C   0  0  0  0  0  0  0  0  0  0  0  0
    6.2550   -1.1550    0.0000 C   0  0  0  0  0  0  0  0  0  0  0  0
    5.5405   -1.5675    0.0000 C   0  0  0  0  0  0  0  0  0  0  0  0
    4.8260   -1.1550    0.0000 C   0  0  0  0  0  0  0  0  0  0  0  0
  1  2  2  0  0  0  0
  2  3  1  0  0  0  0
  3  4  2  0  0  0  0
  3  5  1  0  0  0  0
  2  6  1  0  0  0  0
  6  7  2  0  0  0  0
  7  8  1  0  0  0  0
  8  9  2  0  0  0  0
  1  9  1  0  0  0  0
  9 10  1  0  0  0  0
 10 11  1  0  0  0  0
 11 12  2  0  0  0  0
 12 13  1  0  0  0  0
 13 14  2  0  0  0  0
 14 15  1  0  0  0  0
 15 16  2  0  0  0  0
 11 16  1  0  0  0  0
 16 17  1  0  0  0  0
  8 17  1  0  0  0  0
 10 18  1  0  0  0  0
 18 19  1  0  0  0  0
 19 20  1  0  0  0  0
 20 21  1  0  0  0  0
 21 22  1  0  0  0  0
 22 23  1  0  0  0  0
 23 24  1  0  0  0  0
 24 25  1  0  0  0  0
 20 25  1  0  0  0  0
 21 26  1  0  0  0  0
 27 28  2  0  0  0  0
 28 29  1  0  0  0  0
 29 30  2  0  0  0  0
 29 31  2  0  0  0  0
 29 32  1  0  0  0  0
 28 33  1  0  0  0  0
 33 34  2  0  0  0  0
 34 35  1  0  0  0  0
 35 36  2  0  0  0  0
 27 36  1  0  0  0  0
M  END
>  <Name>
Mesoridazine Besylate

>  <CAS>
32672-69-8

>  <Formula>
C27H32N2O4S3

>  <MolWt>
544.75 

>  <Bioactivity>
Mesoridazine (Serentil) is a piperidine neuroleptic drug belonging to the class of drugs called phenothiazines, used in the treatment of schizophrenia. It is a metabolite of thioridazine. The drug's name is derived from the methylsulfoxy and piperidine functional groups in its chemical structure.

>  <Pathways>
Neuroscience

>  <Target>
5-HT Receptor antagonist;Dopamine Receptor antagonist

>  <Receptor>
5-HT receptor;Dopamine receptor

>  <Reference>
1. Im SH, et al. J Chromatogr B Analyt Technol Biomed Life Sci. 2014 May 1;958:117-23. 

$$$$
126784-99-4
  Mrv1561503291623562D          

 35 39  0  0  1  0            999 V2000
    0.7475   -2.9779    0.0000 C   0  0  1  0  0  0  0  0  0  0  0  0
    0.4672   -3.7538    0.0000 C   0  0  1  0  0  0  0  0  0  0  0  0
   -0.3574   -3.7270    0.0000 C   0  0  2  0  0  0  0  0  0  0  0  0
   -0.2978   -4.5498    0.0000 O   0  0  0  0  0  0  0  0  0  0  0  0
   -0.9807   -5.0128    0.0000 C   0  0  0  0  0  0  0  0  0  0  0  0
   -0.9212   -5.8357    0.0000 O   0  0  0  0  0  0  0  0  0  0  0  0
   -1.7231   -4.6530    0.0000 C   0  0  0  0  0  0  0  0  0  0  0  0
   -0.5867   -2.9345    0.0000 C   0  0  0  0  0  0  0  0  0  0  0  0
    0.0962   -2.4715    0.0000 C   0  0  0  0  0  0  0  0  0  0  0  0
   -1.1695   -3.8722    0.0000 C   0  0  0  0  0  0  0  0  0  0  0  0
   -1.7013   -3.2415    0.0000 O   0  0  0  0  0  0  0  0  0  0  0  0
   -1.8523   -4.3352    0.0000 C   0  0  0  0  0  0  0  0  0  0  0  0
    0.9990   -4.3845    0.0000 C   0  0  0  0  0  0  0  0  0  0  0  0
    1.8111   -4.2393    0.0000 C   0  0  1  0  0  0  0  0  0  0  0  0
    2.0914   -3.4634    0.0000 C   0  0  0  0  0  0  0  0  0  0  0  0
    2.9035   -3.3182    0.0000 C   0  0  0  0  0  0  0  0  0  0  0  0
    3.1838   -2.5422    0.0000 C   0  0  0  0  0  0  0  0  0  0  0  0
    3.9960   -2.3970    0.0000 C   0  0  0  0  0  0  0  0  0  0  0  0
    4.5278   -3.0277    0.0000 C   0  0  0  0  0  0  0  0  0  0  0  0
    5.3399   -2.8825    0.0000 O   0  0  0  0  0  0  0  0  0  0  0  0
    4.2475   -3.8037    0.0000 C   0  0  0  0  0  0  0  0  0  0  0  0
    3.4354   -3.9489    0.0000 C   0  0  0  0  0  0  0  0  0  0  0  0
    2.6520   -1.9115    0.0000 C   0  0  0  0  0  0  0  0  0  0  0  0
    1.8399   -2.0567    0.0000 C   0  0  0  0  0  0  0  0  0  0  0  0
    1.5596   -2.8327    0.0000 C   0  0  1  0  0  0  0  0  0  0  0  0
    2.3429   -4.8700    0.0000 C   0  0  0  0  0  0  0  0  0  0  0  0
    3.1551   -4.7248    0.0000 C   0  0  0  0  0  0  0  0  0  0  0  0
    3.6869   -5.3555    0.0000 C   0  0  0  0  0  0  0  0  0  0  0  0
    3.4066   -6.1314    0.0000 C   0  0  0  0  0  0  0  0  0  0  0  0
    3.9384   -6.7621    0.0000 N   0  0  0  0  0  0  0  0  0  0  0  0
    3.6581   -7.5381    0.0000 C   0  0  0  0  0  0  0  0  0  0  0  0
    4.7505   -6.6169    0.0000 C   0  0  0  0  0  0  0  0  0  0  0  0
    2.5945   -6.2766    0.0000 C   0  0  0  0  0  0  0  0  0  0  0  0
    2.0626   -5.6459    0.0000 C   0  0  0  0  0  0  0  0  0  0  0  0
    0.1073   -4.4962    0.0000 C   0  0  0  0  0  0  0  0  0  0  0  0
  1  2  1  0  0  0  0
  2  3  1  0  0  0  0
  3  4  1  6  0  0  0
  4  5  1  0  0  0  0
  5  6  2  0  0  0  0
  5  7  1  0  0  0  0
  3  8  1  0  0  0  0
  8  9  1  0  0  0  0
  1  9  1  1  0  0  0
  3 10  1  1  0  0  0
 10 11  2  0  0  0  0
 10 12  1  0  0  0  0
  2 13  1  0  0  0  0
 13 14  1  0  0  0  0
 14 15  1  0  0  0  0
 15 16  2  0  0  0  0
 16 17  1  0  0  0  0
 17 18  2  0  0  0  0
 18 19  1  0  0  0  0
 19 20  2  0  0  0  0
 19 21  1  0  0  0  0
 21 22  1  0  0  0  0
 16 22  1  0  0  0  0
 17 23  1  0  0  0  0
 23 24  1  0  0  0  0
 24 25  1  0  0  0  0
  1 25  1  0  0  0  0
 25 15  1  6  0  0  0
 14 26  1  1  0  0  0
 26 27  2  0  0  0  0
 27 28  1  0  0  0  0
 28 29  2  0  0  0  0
 29 30  1  0  0  0  0
 30 31  1  0  0  0  0
 30 32  1  0  0  0  0
 29 33  1  0  0  0  0
 33 34  2  0  0  0  0
 26 34  1  0  0  0  0
  2 35  1  1  0  0  0
M  END
>  <Name>
Ulipristal acetate

>  <CAS>
126784-99-4

>  <Formula>
C30H37NO4

>  <MolWt>
475.62 

>  <Bioactivity>
Ulipristal acetate(CDB2914) is a novel selective progesterone receptor modulator (SPRM) for the treatment of benign gynecological conditions such as uterine myoma.

>  <Pathways>
Endocrinology/ Hormones

>  <Target>
Progesterone receptor modulator 

>  <Receptor>
Progesterone receptor

>  <Reference>
1. Pohl O, et al. Int J Clin Pharmacol Ther. 2013 Jan;51(1):26-33.

$$$$
65928-58-7
  Mrv1561503291623562D          

 23 26  0  0  1  0            999 V2000
    3.9629    0.9934    0.0000 C   0  0  2  0  0  0  0  0  0  0  0  0
    3.6826    0.2174    0.0000 C   0  0  2  0  0  0  0  0  0  0  0  0
    2.8705    0.0722    0.0000 C   0  0  1  0  0  0  0  0  0  0  0  0
    2.3387    0.7029    0.0000 C   0  0  0  0  0  0  0  0  0  0  0  0
    1.5266    0.5577    0.0000 C   0  0  0  0  0  0  0  0  0  0  0  0
    1.2463   -0.2182    0.0000 C   0  0  0  0  0  0  0  0  0  0  0  0
    0.4342   -0.3634    0.0000 C   0  0  0  0  0  0  0  0  0  0  0  0
   -0.0976    0.2673    0.0000 C   0  0  0  0  0  0  0  0  0  0  0  0
   -0.9098    0.1221    0.0000 O   0  0  0  0  0  0  0  0  0  0  0  0
    0.1827    1.0432    0.0000 C   0  0  0  0  0  0  0  0  0  0  0  0
    0.9948    1.1884    0.0000 C   0  0  0  0  0  0  0  0  0  0  0  0
    1.7781   -0.8489    0.0000 C   0  0  0  0  0  0  0  0  0  0  0  0
    2.5902   -0.7037    0.0000 C   0  0  0  0  0  0  0  0  0  0  0  0
    2.6190    1.4789    0.0000 C   0  0  0  0  0  0  0  0  0  0  0  0
    3.4311    1.6241    0.0000 C   0  0  0  0  0  0  0  0  0  0  0  0
    4.3340   -0.2889    0.0000 C   0  0  0  0  0  0  0  0  0  0  0  0
    5.0168    0.1741    0.0000 C   0  0  0  0  0  0  0  0  0  0  0  0
    4.7875    0.9666    0.0000 C   0  0  1  0  0  0  0  0  0  0  0  0
    5.5484    1.2854    0.0000 C   0  0  0  0  0  0  0  0  0  0  0  0
    5.6527    2.1038    0.0000 C   0  0  0  0  0  0  0  0  0  0  0  0
    5.7570    2.9222    0.0000 N   0  0  0  0  0  0  0  0  0  0  0  0
    4.9089    1.7826    0.0000 O   0  0  0  0  0  0  0  0  0  0  0  0
    4.3228    1.7357    0.0000 C   0  0  0  0  0  0  0  0  0  0  0  0
  1  2  1  0  0  0  0
  2  3  1  0  0  0  0
  3  4  1  0  0  0  0
  4  5  2  0  0  0  0
  5  6  1  0  0  0  0
  6  7  2  0  0  0  0
  7  8  1  0  0  0  0
  8  9  2  0  0  0  0
  8 10  1  0  0  0  0
 10 11  1  0  0  0  0
  5 11  1  0  0  0  0
  6 12  1  0  0  0  0
 12 13  1  0  0  0  0
  3 13  1  6  0  0  0
  4 14  1  0  0  0  0
 14 15  1  0  0  0  0
  1 15  1  0  0  0  0
  2 16  1  1  0  0  0
 16 17  1  0  0  0  0
 17 18  1  0  0  0  0
  1 18  1  0  0  0  0
 18 19  1  6  0  0  0
 19 20  1  0  0  0  0
 20 21  3  0  0  0  0
 18 22  1  1  0  0  0
  1 23  1  1  0  0  0
M  END
>  <Name>
Dienogest

>  <CAS>
65928-58-7

>  <Formula>
C20H25NO2

>  <MolWt>
311.42 

>  <Bioactivity>
Dienogest is an orally active synthetic progesterone, used for contraception and the treatment of endometriosis.

>  <Pathways>
Endocrinology/ Hormones

>  <Target>
Estrogen/Progestogen Receptor agonist

>  <Receptor>
Estrogen/progestogen Receptor

>  <Reference>
1. Sasagawa S, et al. Steroids, 2008, 73(2), 222-231.

$$$$
150812-12-7
  Mrv1561503291623562D          

 22 23  0  0  0  0            999 V2000
   -0.0000   -5.7750    0.0000 C   0  0  0  0  0  0  0  0  0  0  0  0
   -0.7145   -5.3625    0.0000 C   0  0  0  0  0  0  0  0  0  0  0  0
   -0.7145   -4.5375    0.0000 C   0  0  0  0  0  0  0  0  0  0  0  0
   -0.0000   -4.1250    0.0000 C   0  0  0  0  0  0  0  0  0  0  0  0
    0.7145   -4.5375    0.0000 C   0  0  0  0  0  0  0  0  0  0  0  0
    0.7145   -5.3625    0.0000 C   0  0  0  0  0  0  0  0  0  0  0  0
    1.4289   -5.7750    0.0000 N   0  0  0  0  0  0  0  0  0  0  0  0
    2.1434   -5.3625    0.0000 C   0  0  0  0  0  0  0  0  0  0  0  0
    2.8579   -5.7750    0.0000 O   0  0  0  0  0  0  0  0  0  0  0  0
    3.5724   -5.3625    0.0000 C   0  0  0  0  0  0  0  0  0  0  0  0
    4.2868   -5.7750    0.0000 C   0  0  0  0  0  0  0  0  0  0  0  0
    2.1434   -4.5375    0.0000 O   0  0  0  0  0  0  0  0  0  0  0  0
    1.4289   -4.1250    0.0000 N   0  0  0  0  0  0  0  0  0  0  0  0
   -1.4289   -4.1250    0.0000 N   0  0  0  0  0  0  0  0  0  0  0  0
   -2.1434   -4.5375    0.0000 C   0  0  0  0  0  0  0  0  0  0  0  0
   -2.8579   -4.1250    0.0000 C   0  0  0  0  0  0  0  0  0  0  0  0
   -3.5724   -4.5375    0.0000 C   0  0  0  0  0  0  0  0  0  0  0  0
   -4.2868   -4.1250    0.0000 C   0  0  0  0  0  0  0  0  0  0  0  0
   -4.2868   -3.3000    0.0000 C   0  0  0  0  0  0  0  0  0  0  0  0
   -3.5724   -2.8875    0.0000 C   0  0  0  0  0  0  0  0  0  0  0  0
   -2.8579   -3.3000    0.0000 C   0  0  0  0  0  0  0  0  0  0  0  0
   -5.0013   -2.8875    0.0000 F   0  0  0  0  0  0  0  0  0  0  0  0
  1  2  2  0  0  0  0
  2  3  1  0  0  0  0
  3  4  2  0  0  0  0
  4  5  1  0  0  0  0
  5  6  2  0  0  0  0
  1  6  1  0  0  0  0
  6  7  1  0  0  0  0
  7  8  1  0  0  0  0
  8  9  1  0  0  0  0
  9 10  1  0  0  0  0
 10 11  1  0  0  0  0
  8 12  2  0  0  0  0
  5 13  1  0  0  0  0
  3 14  1  0  0  0  0
 14 15  1  0  0  0  0
 15 16  1  0  0  0  0
 16 17  2  0  0  0  0
 17 18  1  0  0  0  0
 18 19  2  0  0  0  0
 19 20  1  0  0  0  0
 20 21  2  0  0  0  0
 16 21  1  0  0  0  0
 19 22  1  0  0  0  0
M  END
>  <Name>
Retigabine

>  <CAS>
150812-12-7

>  <Formula>
C16H18FN3O2

>  <MolWt>
303.33 

>  <Bioactivity>
Ezogabine (D23129) is a close structural analog of the centrally acting analgesic flupitrine. It is a neuronal potassium channel opener being developed as a first-in-class antiepileptic drug (AED) and is currently being studied in Phase 3 trials as an adjunctive treatment for partial-onset seizures in adult patients with refractory epilepsy. FDA approved in June 10, 2011 under the name of ezogabine.

>  <Pathways>
Membrane Transporter/Ion Channel

>  <Target>
Potassium Channel

>  <Receptor>
Potassium Channel

>  <Reference>
1. M.J. Brodie, et al. Neurology November 16, 2010 vol. 75 no. 20 1817-1824 .

$$$$
T2522
  Mrv1561503291623562D          

 26 23  0  0  0  0            999 V2000
   -2.1460    1.0824    0.0000 C   0  0  0  0  0  0  0  0  0  0  0  0
   -1.4315    0.6699    0.0000 C   0  0  0  0  0  0  0  0  0  0  0  0
   -0.7170    1.0824    0.0000 C   0  0  0  0  0  0  0  0  0  0  0  0
   -0.7170    1.9074    0.0000 C   0  0  0  0  0  0  0  0  0  0  0  0
   -1.4315    2.3199    0.0000 C   0  0  0  0  0  0  0  0  0  0  0  0
   -0.0026    0.6699    0.0000 C   0  0  0  0  0  0  0  0  0  0  0  0
   -0.0026   -0.1551    0.0000 C   0  0  0  0  0  0  0  0  0  0  0  0
    0.6649   -0.6400    0.0000 C   0  0  0  0  0  0  0  0  0  0  0  0
    0.4099   -1.4246    0.0000 C   0  0  0  0  0  0  0  0  0  0  0  0
   -0.4151   -1.4246    0.0000 C   0  0  0  0  0  0  0  0  0  0  0  0
   -0.6700   -0.6400    0.0000 C   0  0  0  0  0  0  0  0  0  0  0  0
   -1.4546   -0.3851    0.0000 O   0  0  0  0  0  0  0  0  0  0  0  0
   -0.9000   -2.0921    0.0000 C   0  0  0  0  0  0  0  0  0  0  0  0
   -0.5644   -2.8458    0.0000 O   0  0  0  0  0  0  0  0  0  0  0  0
   -1.7205   -2.0058    0.0000 O   0  0  0  0  0  0  0  0  0  0  0  0
    1.4495   -0.3851    0.0000 N   0  0  0  0  0  0  0  0  0  0  0  0
    2.0626   -0.9371    0.0000 C   0  0  0  0  0  0  0  0  0  0  0  0
    1.8911   -1.7441    0.0000 N   0  0  0  0  0  0  0  0  0  0  0  0
    2.8472   -0.6822    0.0000 N   0  0  0  0  0  0  0  0  0  0  0  0
    0.7119    1.0824    0.0000 N   0  0  0  0  0  0  0  0  0  0  0  0
    0.7119    1.9074    0.0000 C   0  0  0  0  0  0  0  0  0  0  0  0
    1.4264    2.3199    0.0000 O   0  0  0  0  0  0  0  0  0  0  0  0
   -0.0026    2.3199    0.0000 C   0  0  0  0  0  0  0  0  0  0  0  0
    5.2044    0.0000    0.0000 O   0  0  0  0  0  0  0  0  0  0  0  0
    0.0000   -4.4958    0.0000 O   0  0  0  0  0  0  0  0  0  0  0  0
    2.3571   -4.4958    0.0000 O   0  0  0  0  0  0  0  0  0  0  0  0
  1  2  1  0  0  0  0
  2  3  1  0  0  0  0
  3  4  1  0  0  0  0
  4  5  1  0  0  0  0
  3  6  1  0  0  0  0
  6  7  1  0  0  0  0
  7  8  1  0  0  0  0
  8  9  1  0  0  0  0
  9 10  1  0  0  0  0
 10 11  1  0  0  0  0
  7 11  1  0  0  0  0
 11 12  1  0  0  0  0
 10 13  1  0  0  0  0
 13 14  2  0  0  0  0
 13 15  1  0  0  0  0
  8 16  1  0  0  0  0
 16 17  2  0  0  0  0
 17 18  1  0  0  0  0
 17 19  1  0  0  0  0
  6 20  1  0  0  0  0
 20 21  1  0  0  0  0
 21 22  2  0  0  0  0
 21 23  1  0  0  0  0
M  END
>  <Name>
Peramivir Trihydrate

>  <CAS>
1041434-82-5

>  <Formula>
C15H28N4O4.3H2O

>  <MolWt>
382.45 

>  <Bioactivity>
Peramivir Trihydrate is a trihydrate of the anti-infection agent peramivir (RWJ-270201,BCX-1812) which is a transition-state analogue and a potent, specific influenza viral neuraminidase inhibitor with an IC50 of median 0.09 nM.

>  <Pathways>
Microbiology & Virology

>  <Target>
Influenza Virus

>  <Receptor>
influenza viral neuraminidase

>  <Reference>
1. Yun NE, et al. Virology, 2008, 374(1), 198-209.

$$$$
53-39-4
  Mrv1561503291623562D          

 22 25  0  0  1  0            999 V2000
    1.5596   -2.8327    0.0000 C   0  0  1  0  0  0  0  0  0  0  0  0
    2.0914   -3.4634    0.0000 C   0  0  1  0  0  0  0  0  0  0  0  0
    2.9035   -3.3182    0.0000 C   0  0  2  0  0  0  0  0  0  0  0  0
    3.1838   -2.5422    0.0000 C   0  0  2  0  0  0  0  0  0  0  0  0
    3.9960   -2.3970    0.0000 C   0  0  0  0  0  0  0  0  0  0  0  0
    4.5278   -3.0277    0.0000 C   0  0  0  0  0  0  0  0  0  0  0  0
    5.3399   -2.8825    0.0000 O   0  0  0  0  0  0  0  0  0  0  0  0
    4.2475   -3.8037    0.0000 O   0  0  0  0  0  0  0  0  0  0  0  0
    3.4354   -3.9489    0.0000 C   0  0  0  0  0  0  0  0  0  0  0  0
    2.6520   -1.9115    0.0000 C   0  0  0  0  0  0  0  0  0  0  0  0
    1.8399   -2.0567    0.0000 C   0  0  0  0  0  0  0  0  0  0  0  0
    2.6232   -4.0941    0.0000 C   0  0  0  0  0  0  0  0  0  0  0  0
    1.8111   -4.2393    0.0000 C   0  0  0  0  0  0  0  0  0  0  0  0
    0.9990   -4.3845    0.0000 C   0  0  0  0  0  0  0  0  0  0  0  0
    0.4672   -3.7538    0.0000 C   0  0  1  0  0  0  0  0  0  0  0  0
    0.7475   -2.9779    0.0000 C   0  0  1  0  0  0  0  0  0  0  0  0
    0.0962   -2.4715    0.0000 C   0  0  0  0  0  0  0  0  0  0  0  0
   -0.5867   -2.9345    0.0000 C   0  0  0  0  0  0  0  0  0  0  0  0
   -0.3574   -3.7270    0.0000 C   0  0  1  0  0  0  0  0  0  0  0  0
   -1.1183   -4.0459    0.0000 C   0  0  0  0  0  0  0  0  0  0  0  0
   -0.4788   -4.5430    0.0000 O   0  0  0  0  0  0  0  0  0  0  0  0
    0.1073   -4.4962    0.0000 C   0  0  0  0  0  0  0  0  0  0  0  0
  1  2  1  0  0  0  0
  2  3  1  0  0  0  0
  3  4  1  0  0  0  0
  4  5  1  0  0  0  0
  5  6  1  0  0  0  0
  6  7  2  0  0  0  0
  6  8  1  0  0  0  0
  8  9  1  0  0  0  0
  3  9  1  0  0  0  0
  4 10  1  1  0  0  0
 10 11  1  0  0  0  0
  1 11  1  6  0  0  0
  3 12  1  1  0  0  0
  2 13  1  1  0  0  0
 13 14  1  0  0  0  0
 14 15  1  0  0  0  0
 15 16  1  0  0  0  0
  1 16  1  0  0  0  0
 16 17  1  1  0  0  0
 17 18  1  0  0  0  0
 18 19  1  0  0  0  0
 15 19  1  0  0  0  0
 19 20  1  6  0  0  0
 19 21  1  1  0  0  0
 15 22  1  1  0  0  0
M  END
>  <Name>
Oxandrolone

>  <CAS>
53-39-4

>  <Formula>
C19H30O3

>  <MolWt>
306.44 

>  <Bioactivity>
Oxandrolone(SC11585) is a synthetic hormone with anabolic and androgenic properties.

>  <Pathways>
Endocrinology/ Hormones

>  <Target>
Androgen Receptor Agonist

>  <Receptor>
Androgen Receptor

>  <Reference>
1. Zhao J, et al. Steroids, 2004. 69(5): p. 357-66.

$$$$
38304-91-5
  Mrv1561503291623562D          

 15 16  0  0  0  0            999 V2000
    0.0000   -1.6500    0.0000 C   0  0  0  0  0  0  0  0  0  0  0  0
    0.7145   -1.2375    0.0000 N   0  0  0  0  0  0  0  0  0  0  0  0
    0.7145   -0.4125    0.0000 C   0  0  0  0  0  0  0  0  0  0  0  0
    0.0000    0.0000    0.0000 N   0  0  0  0  0  0  0  0  0  0  0  0
    0.0000    0.8250    0.0000 C   0  0  0  0  0  0  0  0  0  0  0  0
   -0.7145    1.2375    0.0000 N   0  0  0  0  0  0  0  0  0  0  0  0
    0.7145    1.2375    0.0000 N   0  0  0  0  0  0  0  0  0  0  0  0
    1.4289    0.8250    0.0000 C   0  0  0  0  0  0  0  0  0  0  0  0
    1.4289   -0.0000    0.0000 C   0  0  0  0  0  0  0  0  0  0  0  0
    2.1434    1.2375    0.0000 N   0  0  0  0  0  0  0  0  0  0  0  0
    0.7145    2.0625    0.0000 O   0  0  0  0  0  0  0  0  0  0  0  0
    1.4289   -1.6500    0.0000 C   0  0  0  0  0  0  0  0  0  0  0  0
    1.4289   -2.4750    0.0000 C   0  0  0  0  0  0  0  0  0  0  0  0
    0.7145   -2.8875    0.0000 C   0  0  0  0  0  0  0  0  0  0  0  0
   -0.0000   -2.4750    0.0000 C   0  0  0  0  0  0  0  0  0  0  0  0
  1  2  1  0  0  0  0
  2  3  1  0  0  0  0
  3  4  2  0  0  0  0
  4  5  1  0  0  0  0
  5  6  2  0  0  0  0
  5  7  1  0  0  0  0
  7  8  1  0  0  0  0
  8  9  2  0  0  0  0
  3  9  1  0  0  0  0
  8 10  1  0  0  0  0
  7 11  1  0  0  0  0
  2 12  1  0  0  0  0
 12 13  1  0  0  0  0
 13 14  1  0  0  0  0
 14 15  1  0  0  0  0
  1 15  1  0  0  0  0
M  END
>  <Name>
Minoxidil

>  <CAS>
38304-91-5

>  <Formula>
C9H15N5O

>  <MolWt>
209.25 

>  <Bioactivity>
A potent direct-acting peripheral vasodilator (vasodilator agents) that reduces peripheral resistance and produces a fall in blood pressure. (From Martindale, The Extra Pharmacopoeia, 30th ed, p371)

>  <Pathways>
Membrane Transporter/Ion Channel; Neuroscience

>  <Target>
COX inhibitor; Potassium Channel

>  <Receptor>
Prostaglandin G/H synthase 1;Potassium Channel

>  <Reference>
1. Evans JM, et al. J Exp Biol. 2005 Oct; 208(Pt 19):3771-83.

$$$$
100643-71-8
  Mrv1561503291623562D          

 22 25  0  0  0  0            999 V2000
    1.3897   -0.3148    0.0000 C   0  0  0  0  0  0  0  0  0  0  0  0
    1.9945   -0.8760    0.0000 C   0  0  0  0  0  0  0  0  0  0  0  0
    2.7378   -0.5180    0.0000 C   0  0  0  0  0  0  0  0  0  0  0  0
    3.4811   -0.8760    0.0000 C   0  0  0  0  0  0  0  0  0  0  0  0
    4.0859   -0.3148    0.0000 N   0  0  0  0  0  0  0  0  0  0  0  0
    4.8742   -0.5580    0.0000 C   0  0  0  0  0  0  0  0  0  0  0  0
    5.0578   -1.3623    0.0000 C   0  0  0  0  0  0  0  0  0  0  0  0
    4.4530   -1.9235    0.0000 C   0  0  0  0  0  0  0  0  0  0  0  0
    3.6647   -1.6803    0.0000 C   0  0  0  0  0  0  0  0  0  0  0  0
    3.1503   -2.3253    0.0000 C   0  0  0  0  0  0  0  0  0  0  0  0
    2.3253   -2.3253    0.0000 C   0  0  0  0  0  0  0  0  0  0  0  0
    1.8109   -1.6803    0.0000 C   0  0  0  0  0  0  0  0  0  0  0  0
    1.0226   -1.9235    0.0000 C   0  0  0  0  0  0  0  0  0  0  0  0
    0.4178   -1.3623    0.0000 C   0  0  0  0  0  0  0  0  0  0  0  0
    0.6014   -0.5580    0.0000 C   0  0  0  0  0  0  0  0  0  0  0  0
   -0.3705   -1.6055    0.0000 Cl  0  0  0  0  0  0  0  0  0  0  0  0
    2.7378    0.3070    0.0000 C   0  0  0  0  0  0  0  0  0  0  0  0
    2.0233    0.7195    0.0000 C   0  0  0  0  0  0  0  0  0  0  0  0
    2.0233    1.5445    0.0000 C   0  0  0  0  0  0  0  0  0  0  0  0
    2.7378    1.9570    0.0000 N   0  0  0  0  0  0  0  0  0  0  0  0
    3.4523    1.5445    0.0000 C   0  0  0  0  0  0  0  0  0  0  0  0
    3.4523    0.7195    0.0000 C   0  0  0  0  0  0  0  0  0  0  0  0
  1  2  2  0  0  0  0
  2  3  1  0  0  0  0
  3  4  1  0  0  0  0
  4  5  2  0  0  0  0
  5  6  1  0  0  0  0
  6  7  2  0  0  0  0
  7  8  1  0  0  0  0
  8  9  2  0  0  0  0
  4  9  1  0  0  0  0
  9 10  1  0  0  0  0
 10 11  1  0  0  0  0
 11 12  1  0  0  0  0
  2 12  1  0  0  0  0
 12 13  2  0  0  0  0
 13 14  1  0  0  0  0
 14 15  2  0  0  0  0
  1 15  1  0  0  0  0
 14 16  1  0  0  0  0
  3 17  2  0  0  0  0
 17 18  1  0  0  0  0
 18 19  1  0  0  0  0
 19 20  1  0  0  0  0
 20 21  1  0  0  0  0
 21 22  1  0  0  0  0
 17 22  1  0  0  0  0
M  END
>  <Name>
Desloratadine

>  <CAS>
100643-71-8

>  <Formula>
C19H19ClN2

>  <MolWt>
310.82 

>  <Bioactivity>
Desloratadine is a potent antagonist for human histamine H1 receptor with IC50 of 51 nM.

>  <Pathways>
Neuroscience

>  <Target>
Histamine Receptor antagonist

>  <Receptor>
Histamine H1 receptor

>  <Reference>
1. Geha RS, et al. J Allergy Clin Immunol, 2001, 107(4), 751-762.

$$$$
141505-33-1
  Mrv1561503291623562D          

 21 22  0  0  1  0            999 V2000
    0.7145   -1.2375    0.0000 C   0  0  1  0  0  0  0  0  0  0  0  0
    1.4289   -1.6500    0.0000 C   0  0  0  0  0  0  0  0  0  0  0  0
    1.4289   -2.4750    0.0000 N   0  0  0  0  0  0  0  0  0  0  0  0
    0.7145   -2.8875    0.0000 N   0  0  0  0  0  0  0  0  0  0  0  0
   -0.0000   -2.4750    0.0000 C   0  0  0  0  0  0  0  0  0  0  0  0
   -0.0000   -1.6500    0.0000 C   0  0  0  0  0  0  0  0  0  0  0  0
   -0.7145   -2.8875    0.0000 O   0  0  0  0  0  0  0  0  0  0  0  0
    2.1434   -1.2375    0.0000 C   0  0  0  0  0  0  0  0  0  0  0  0
    2.1434   -0.4125    0.0000 C   0  0  0  0  0  0  0  0  0  0  0  0
    2.8579    0.0000    0.0000 C   0  0  0  0  0  0  0  0  0  0  0  0
    3.5724   -0.4125    0.0000 C   0  0  0  0  0  0  0  0  0  0  0  0
    3.5724   -1.2375    0.0000 C   0  0  0  0  0  0  0  0  0  0  0  0
    2.8579   -1.6500    0.0000 C   0  0  0  0  0  0  0  0  0  0  0  0
    4.2868   -0.0000    0.0000 N   0  0  0  0  0  0  0  0  0  0  0  0
    4.2868    0.8250    0.0000 N   0  0  0  0  0  0  0  0  0  0  0  0
    5.0013    1.2375    0.0000 C   0  0  0  0  0  0  0  0  0  0  0  0
    5.0013    2.0625    0.0000 C   0  0  0  0  0  0  0  0  0  0  0  0
    5.0013    2.8875    0.0000 N   0  0  0  0  0  0  0  0  0  0  0  0
    5.7158    0.8250    0.0000 C   0  0  0  0  0  0  0  0  0  0  0  0
    6.4302    0.4125    0.0000 N   0  0  0  0  0  0  0  0  0  0  0  0
    0.7145   -0.4125    0.0000 C   0  0  0  0  0  0  0  0  0  0  0  0
  1  2  1  0  0  0  0
  2  3  2  0  0  0  0
  3  4  1  0  0  0  0
  4  5  1  0  0  0  0
  5  6  1  0  0  0  0
  1  6  1  0  0  0  0
  5  7  2  0  0  0  0
  2  8  1  0  0  0  0
  8  9  2  0  0  0  0
  9 10  1  0  0  0  0
 10 11  2  0  0  0  0
 11 12  1  0  0  0  0
 12 13  2  0  0  0  0
  8 13  1  0  0  0  0
 11 14  1  0  0  0  0
 14 15  1  0  0  0  0
 15 16  2  0  0  0  0
 16 17  1  0  0  0  0
 17 18  3  0  0  0  0
 16 19  1  0  0  0  0
 19 20  3  0  0  0  0
  1 21  1  1  0  0  0
M  END
>  <Name>
Levosimendan

>  <CAS>
141505-33-1

>  <Formula>
C14H12N6O

>  <MolWt>
280.28 

>  <Bioactivity>
Levosimendan is a calcium sensitizer acting through calcium-dependent binding to cardiac troponin C (cTnC), provides treatment for heart failure.

>  <Pathways>
Membrane Transporter/Ion Channel

>  <Target>
Calcium Channel inhibitor

>  <Receptor>
Cardiac troponin C

>  <Reference>
1. Haikala H, J Mol Cell Cardiol, 1995, 27(9), 1859-1866.

$$$$
2550-75-6
  Mrv1561503291623562D          

 17 18  0  0  0  0            999 V2000
   -0.7145   -0.4125    0.0000 C   0  0  0  0  0  0  0  0  0  0  0  0
    0.0000   -0.0000    0.0000 C   0  0  0  0  0  0  0  0  0  0  0  0
    0.7145   -0.4125    0.0000 C   0  0  0  0  0  0  0  0  0  0  0  0
    0.7145   -1.2375    0.0000 Cl  0  0  0  0  0  0  0  0  0  0  0  0
    0.5082    0.4125    0.0000 C   0  0  0  0  0  0  0  0  0  0  0  0
   -0.2821    0.1757    0.0000 Cl  0  0  0  0  0  0  0  0  0  0  0  0
   -0.2821    0.6493    0.0000 Cl  0  0  0  0  0  0  0  0  0  0  0  0
    0.7145    1.2375    0.0000 C   0  0  0  0  0  0  0  0  0  0  0  0
   -0.0000    0.8250    0.0000 C   0  0  0  0  0  0  0  0  0  0  0  0
   -0.7145    1.2375    0.0000 C   0  0  0  0  0  0  0  0  0  0  0  0
   -0.7145    2.0625    0.0000 Cl  0  0  0  0  0  0  0  0  0  0  0  0
    1.4289    0.8250    0.0000 C   0  0  0  0  0  0  0  0  0  0  0  0
    1.4289    0.0000    0.0000 C   0  0  0  0  0  0  0  0  0  0  0  0
    2.1434   -0.4125    0.0000 Cl  0  0  0  0  0  0  0  0  0  0  0  0
    2.1434    1.2375    0.0000 Cl  0  0  0  0  0  0  0  0  0  0  0  0
    0.7145    2.0625    0.0000 Cl  0  0  0  0  0  0  0  0  0  0  0  0
   -0.7145   -1.2375    0.0000 Cl  0  0  0  0  0  0  0  0  0  0  0  0
  1  2  1  0  0  0  0
  2  3  1  0  0  0  0
  3  4  1  0  0  0  0
  3  5  1  0  0  0  0
  5  6  1  0  0  0  0
  5  7  1  0  0  0  0
  5  8  1  0  0  0  0
  8  9  1  0  0  0  0
  2  9  1  0  0  0  0
  9 10  1  0  0  0  0
 10 11  1  0  0  0  0
  8 12  1  0  0  0  0
 12 13  2  0  0  0  0
  3 13  1  0  0  0  0
 13 14  1  0  0  0  0
 12 15  1  0  0  0  0
  8 16  1  0  0  0  0
  1 17  1  0  0  0  0
M  END
>  <Name>
Alodan

>  <CAS>
2550-75-6

>  <Formula>
C9H6Cl8

>  <MolWt>
397.77 

>  <Bioactivity>
Alodan is an organic chloride insecticide

>  <Pathways>
Others

>  <Target>
Others

>  <Receptor>
Others

>  <Reference>
1. REHM WF, GARMS R. Z Tropenmed Parasitol. 1959 Aug;10:154-9.

$$$$
120068-37-3
  Mrv1561503291623562D          

 26 27  0  0  0  0            999 V2000
    2.0367    4.3527    0.0000 C   0  0  0  0  0  0  0  0  0  0  0  0
    2.7512    4.7652    0.0000 C   0  0  0  0  0  0  0  0  0  0  0  0
    2.7512    5.5902    0.0000 C   0  0  0  0  0  0  0  0  0  0  0  0
    2.7512    6.4152    0.0000 F   0  0  0  0  0  0  0  0  0  0  0  0
    1.9262    5.5902    0.0000 F   0  0  0  0  0  0  0  0  0  0  0  0
    3.5762    5.5902    0.0000 F   0  0  0  0  0  0  0  0  0  0  0  0
    3.4656    4.3527    0.0000 C   0  0  0  0  0  0  0  0  0  0  0  0
    3.4656    3.5277    0.0000 C   0  0  0  0  0  0  0  0  0  0  0  0
    2.7512    3.1152    0.0000 C   0  0  0  0  0  0  0  0  0  0  0  0
    2.0367    3.5277    0.0000 C   0  0  0  0  0  0  0  0  0  0  0  0
    1.3222    3.1152    0.0000 Cl  0  0  0  0  0  0  0  0  0  0  0  0
    2.7512    2.2902    0.0000 N   0  0  0  0  0  0  0  0  0  0  0  0
    3.4186    1.8053    0.0000 C   0  0  0  0  0  0  0  0  0  0  0  0
    3.1637    1.0206    0.0000 C   0  0  0  0  0  0  0  0  0  0  0  0
    3.6486    0.3532    0.0000 S   0  0  0  0  0  0  0  0  0  0  0  0
    4.4691    0.4394    0.0000 C   0  0  0  0  0  0  0  0  0  0  0  0
    5.2896    0.5257    0.0000 F   0  0  0  0  0  0  0  0  0  0  0  0
    4.5553   -0.3810    0.0000 F   0  0  0  0  0  0  0  0  0  0  0  0
    4.3828    1.2599    0.0000 F   0  0  0  0  0  0  0  0  0  0  0  0
    3.3130   -0.4005    0.0000 O   0  0  0  0  0  0  0  0  0  0  0  0
    2.3387    1.0206    0.0000 C   0  0  0  0  0  0  0  0  0  0  0  0
    2.0837    1.8053    0.0000 N   0  0  0  0  0  0  0  0  0  0  0  0
    1.8538    0.3532    0.0000 C   0  0  0  0  0  0  0  0  0  0  0  0
    1.3688   -0.3142    0.0000 N   0  0  0  0  0  0  0  0  0  0  0  0
    4.2032    2.0602    0.0000 N   0  0  0  0  0  0  0  0  0  0  0  0
    4.1801    3.1152    0.0000 Cl  0  0  0  0  0  0  0  0  0  0  0  0
  1  2  2  0  0  0  0
  2  3  1  0  0  0  0
  3  4  1  0  0  0  0
  3  5  1  0  0  0  0
  3  6  1  0  0  0  0
  2  7  1  0  0  0  0
  7  8  2  0  0  0  0
  8  9  1  0  0  0  0
  9 10  2  0  0  0  0
  1 10  1  0  0  0  0
 10 11  1  0  0  0  0
  9 12  1  0  0  0  0
 12 13  1  0  0  0  0
 13 14  2  0  0  0  0
 14 15  1  0  0  0  0
 15 16  1  0  0  0  0
 16 17  1  0  0  0  0
 16 18  1  0  0  0  0
 16 19  1  0  0  0  0
 15 20  2  0  0  0  0
 14 21  1  0  0  0  0
 21 22  2  0  0  0  0
 12 22  1  0  0  0  0
 21 23  1  0  0  0  0
 23 24  3  0  0  0  0
 13 25  1  0  0  0  0
  8 26  1  0  0  0  0
M  END
>  <Name>
Fipronil

>  <CAS>
120068-37-3

>  <Formula>
C12H4Cl2F6N4OS

>  <MolWt>
437.15 

>  <Bioactivity>
Fipronil is a broad-use insecticide that belongs to the phenylpyrazole chemical family. Fipronil is a broad-spectrum insecticide that disrupts the insect central nervous system by blocking GABA-gated chloride channels and glutamate-gated chloride (GluCl) channels, resulting in central nervous system toxicity. This causes hyperexcitation of contaminated insects' nerves and muscles. Specificity of fipronil on insects may come from a better efficacy on GABA receptor, but also because GluCl channels do not exist in mammals. 

>  <Pathways>
Membrane Transporter/Ion Channel

>  <Target>
GluCl Channel inhibitor

>  <Receptor>
GABA-gated Cl channels, GluCl channels

>  <Reference>
1. Zaluski R, et al. Environ Toxicol Chem. 2015 May;34(5):1062-9. 

$$$$
T2184
  Mrv1561503291623562D          

 18 19  0  0  0  0            999 V2000
   -0.7145   -2.8875    0.0000 C   0  0  0  0  0  0  0  0  0  0  0  0
   -1.4289   -3.3000    0.0000 C   0  0  0  0  0  0  0  0  0  0  0  0
   -1.4289   -4.1250    0.0000 S   0  0  0  0  0  0  0  0  0  0  0  0
   -1.4289   -4.9500    0.0000 N   0  0  0  0  0  0  0  0  0  0  0  0
   -0.7145   -5.3625    0.0000 C   0  0  0  0  0  0  0  0  0  0  0  0
   -0.0000   -4.9500    0.0000 N   0  0  0  0  0  0  0  0  0  0  0  0
    0.7145   -5.3625    0.0000 N   0  0  0  0  0  0  0  0  0  0  0  0
    0.7145   -6.1875    0.0000 C   0  0  0  0  0  0  0  0  0  0  0  0
   -0.0000   -6.6000    0.0000 C   0  0  0  0  0  0  0  0  0  0  0  0
   -0.7145   -6.1875    0.0000 C   0  0  0  0  0  0  0  0  0  0  0  0
    1.4289   -6.6000    0.0000 Cl  0  0  0  0  0  0  0  0  0  0  0  0
   -0.6039   -4.1250    0.0000 O   0  0  0  0  0  0  0  0  0  0  0  0
   -2.2539   -4.1250    0.0000 O   0  0  0  0  0  0  0  0  0  0  0  0
   -2.1434   -2.8875    0.0000 C   0  0  0  0  0  0  0  0  0  0  0  0
   -2.1434   -2.0625    0.0000 C   0  0  0  0  0  0  0  0  0  0  0  0
   -1.4289   -1.6500    0.0000 C   0  0  0  0  0  0  0  0  0  0  0  0
   -0.7145   -2.0625    0.0000 C   0  0  0  0  0  0  0  0  0  0  0  0
   -1.4289   -0.8250    0.0000 N   0  0  0  0  0  0  0  0  0  0  0  0
  1  2  2  0  0  0  0
  2  3  1  0  0  0  0
  3  4  1  0  0  0  0
  4  5  1  0  0  0  0
  5  6  2  0  0  0  0
  6  7  1  0  0  0  0
  7  8  2  0  0  0  0
  8  9  1  0  0  0  0
  9 10  2  0  0  0  0
  5 10  1  0  0  0  0
  8 11  1  0  0  0  0
  3 12  2  0  0  0  0
  3 13  2  0  0  0  0
  2 14  1  0  0  0  0
 14 15  2  0  0  0  0
 15 16  1  0  0  0  0
 16 17  2  0  0  0  0
  1 17  1  0  0  0  0
 16 18  1  0  0  0  0
M  END
>  <Name>
Sulfachloropyridazine

>  <CAS>
80-32-0

>  <Formula>
C10H9ClN4O2S

>  <MolWt>
284.72 

>  <Bioactivity>
A sulfonamide antimicrobial used for urinary tract infections and in veterinary medicine.

>  <Pathways>
Microbiology & Virology

>  <Target>
Antibacterial

>  <Receptor>
Others

>  <Reference>
1. Alavi FK, et al. J Vet Pharmacol Ther. 1993 Jun;16(2):232-6.

$$$$
763113-22-0
  Mrv1561503291623562D          

 32 36  0  0  0  0            999 V2000
    8.2717   -2.9980    0.0000 C   0  0  0  0  0  0  0  0  0  0  0  0
    8.6842   -3.7125    0.0000 C   0  0  0  0  0  0  0  0  0  0  0  0
    7.8592   -3.7125    0.0000 C   0  0  0  0  0  0  0  0  0  0  0  0
    7.1447   -4.1250    0.0000 C   0  0  0  0  0  0  0  0  0  0  0  0
    7.1447   -4.9500    0.0000 O   0  0  0  0  0  0  0  0  0  0  0  0
    6.4302   -3.7125    0.0000 N   0  0  0  0  0  0  0  0  0  0  0  0
    5.7158   -4.1250    0.0000 C   0  0  0  0  0  0  0  0  0  0  0  0
    5.0013   -3.7125    0.0000 C   0  0  0  0  0  0  0  0  0  0  0  0
    5.0013   -2.8875    0.0000 N   0  0  0  0  0  0  0  0  0  0  0  0
    5.7158   -2.4750    0.0000 C   0  0  0  0  0  0  0  0  0  0  0  0
    6.4302   -2.8875    0.0000 C   0  0  0  0  0  0  0  0  0  0  0  0
    4.2868   -2.4750    0.0000 C   0  0  0  0  0  0  0  0  0  0  0  0
    4.2868   -1.6500    0.0000 O   0  0  0  0  0  0  0  0  0  0  0  0
    3.5724   -2.8875    0.0000 C   0  0  0  0  0  0  0  0  0  0  0  0
    3.5724   -3.7125    0.0000 C   0  0  0  0  0  0  0  0  0  0  0  0
    2.8579   -4.1250    0.0000 C   0  0  0  0  0  0  0  0  0  0  0  0
    2.1434   -3.7125    0.0000 C   0  0  0  0  0  0  0  0  0  0  0  0
    2.1434   -2.8875    0.0000 C   0  0  0  0  0  0  0  0  0  0  0  0
    2.8579   -2.4750    0.0000 C   0  0  0  0  0  0  0  0  0  0  0  0
    1.4289   -2.4750    0.0000 C   0  0  0  0  0  0  0  0  0  0  0  0
    1.4289   -1.6500    0.0000 C   0  0  0  0  0  0  0  0  0  0  0  0
    0.7145   -1.2375    0.0000 N   0  0  0  0  0  0  0  0  0  0  0  0
    0.7145   -0.4125    0.0000 N   0  0  0  0  0  0  0  0  0  0  0  0
    1.4289   -0.0000    0.0000 C   0  0  0  0  0  0  0  0  0  0  0  0
    1.4289    0.8250    0.0000 O   0  0  0  0  0  0  0  0  0  0  0  0
    2.1434   -0.4125    0.0000 C   0  0  0  0  0  0  0  0  0  0  0  0
    2.8579   -0.0000    0.0000 C   0  0  0  0  0  0  0  0  0  0  0  0
    3.5724   -0.4125    0.0000 C   0  0  0  0  0  0  0  0  0  0  0  0
    3.5724   -1.2375    0.0000 C   0  0  0  0  0  0  0  0  0  0  0  0
    2.8579   -1.6500    0.0000 C   0  0  0  0  0  0  0  0  0  0  0  0
    2.1434   -1.2375    0.0000 C   0  0  0  0  0  0  0  0  0  0  0  0
    4.2868   -4.1250    0.0000 F   0  0  0  0  0  0  0  0  0  0  0  0
  1  2  1  0  0  0  0
  2  3  1  0  0  0  0
  1  3  1  0  0  0  0
  3  4  1  0  0  0  0
  4  5  2  0  0  0  0
  4  6  1  0  0  0  0
  6  7  1  0  0  0  0
  7  8  1  0  0  0  0
  8  9  1  0  0  0  0
  9 10  1  0  0  0  0
 10 11  1  0  0  0  0
  6 11  1  0  0  0  0
  9 12  1  0  0  0  0
 12 13  2  0  0  0  0
 12 14  1  0  0  0  0
 14 15  2  0  0  0  0
 15 16  1  0  0  0  0
 16 17  2  0  0  0  0
 17 18  1  0  0  0  0
 18 19  2  0  0  0  0
 14 19  1  0  0  0  0
 18 20  1  0  0  0  0
 20 21  1  0  0  0  0
 21 22  2  0  0  0  0
 22 23  1  0  0  0  0
 23 24  1  0  0  0  0
 24 25  2  0  0  0  0
 24 26  1  0  0  0  0
 26 27  2  0  0  0  0
 27 28  1  0  0  0  0
 28 29  2  0  0  0  0
 29 30  1  0  0  0  0
 30 31  2  0  0  0  0
 26 31  1  0  0  0  0
 21 31  1  0  0  0  0
 15 32  1  0  0  0  0
M  END
>  <Name>
Olaparib (AZD2281, Ku-0059436)

>  <CAS>
763113-22-0

>  <Formula>
C24H23FN4O3

>  <MolWt>
434.46 

>  <Bioactivity>
Olaparib (AZD2281, KU0059436) is a potent PARP inhibitor with IC50 of 5 and 1 nM for PARP-1and PARP-2, respectively.

>  <Pathways>
Chromatin/Epigenetic

>  <Target>
PARP inhibitor

>  <Receptor>
PARP1/2

>  <Reference>
1. Menear KA, et al. J Med Chem, 2008, 51(20), 6581-6591.

$$$$
T0389
  Mrv1561503291623562D          

 46 49  0  0  0  0            999 V2000
  -13.3515    5.0065    0.0000 C   0  0  0  0  0  0  0  0  0  0  0  0
  -12.9390    4.2920    0.0000 C   0  0  0  0  0  0  0  0  0  0  0  0
  -12.1321    4.1205    0.0000 N   0  0  0  0  0  0  0  0  0  0  0  0
  -12.0458    3.3000    0.0000 C   0  0  0  0  0  0  0  0  0  0  0  0
  -12.7995    2.9644    0.0000 N   0  0  0  0  0  0  0  0  0  0  0  0
  -13.3515    3.5775    0.0000 C   0  0  0  0  0  0  0  0  0  0  0  0
  -14.1765    3.5775    0.0000 C   0  0  0  0  0  0  0  0  0  0  0  0
  -14.5890    4.2920    0.0000 C   0  0  0  0  0  0  0  0  0  0  0  0
  -14.1765    5.0065    0.0000 C   0  0  0  0  0  0  0  0  0  0  0  0
  -14.5890    5.7209    0.0000 C   0  0  0  0  0  0  0  0  0  0  0  0
  -14.1765    6.4354    0.0000 O   0  0  0  0  0  0  0  0  0  0  0  0
  -15.4140    5.7209    0.0000 N   0  0  0  0  0  0  0  0  0  0  0  0
  -15.8265    5.0065    0.0000 C   0  0  0  0  0  0  0  0  0  0  0  0
  -15.4140    4.2920    0.0000 N   0  0  0  0  0  0  0  0  0  0  0  0
  -15.8265    3.5775    0.0000 C   0  0  0  0  0  0  0  0  0  0  0  0
  -16.6515    3.5775    0.0000 C   0  0  0  0  0  0  0  0  0  0  0  0
  -17.0640    4.2920    0.0000 C   0  0  0  0  0  0  0  0  0  0  0  0
  -16.6515    5.0065    0.0000 C   0  0  0  0  0  0  0  0  0  0  0  0
  -15.8265    6.4354    0.0000 C   0  0  0  0  0  0  0  0  0  0  0  0
  -16.6515    6.4354    0.0000 C   0  0  0  0  0  0  0  0  0  0  0  0
  -17.0640    7.1499    0.0000 C   0  0  0  0  0  0  0  0  0  0  0  0
  -17.8890    7.1499    0.0000 O   0  0  0  0  0  0  0  0  0  0  0  0
  -18.3015    7.8644    0.0000 C   0  0  0  0  0  0  0  0  0  0  0  0
  -19.1265    7.8644    0.0000 C   0  0  0  0  0  0  0  0  0  0  0  0
  -16.6515    7.8644    0.0000 O   0  0  0  0  0  0  0  0  0  0  0  0
  -12.9710    2.1575    0.0000 C   0  0  0  0  0  0  0  0  0  0  0  0
  -11.3314    2.8875    0.0000 C   0  0  0  0  0  0  0  0  0  0  0  0
  -10.6169    3.3000    0.0000 N   0  0  0  0  0  0  0  0  0  0  0  0
   -9.9024    2.8875    0.0000 C   0  0  0  0  0  0  0  0  0  0  0  0
   -9.1880    3.3000    0.0000 C   0  0  0  0  0  0  0  0  0  0  0  0
   -8.4735    2.8875    0.0000 C   0  0  0  0  0  0  0  0  0  0  0  0
   -8.4735    2.0625    0.0000 C   0  0  0  0  0  0  0  0  0  0  0  0
   -9.1880    1.6500    0.0000 C   0  0  0  0  0  0  0  0  0  0  0  0
   -9.9024    2.0625    0.0000 C   0  0  0  0  0  0  0  0  0  0  0  0
   -7.7590    1.6500    0.0000 C   0  0  0  0  0  0  0  0  0  0  0  0
   -7.7590    0.8250    0.0000 N   0  0  0  0  0  0  0  0  0  0  0  0
   -7.0445    0.4125    0.0000 C   0  0  0  0  0  0  0  0  0  0  0  0
   -6.3301    0.8250    0.0000 O   0  0  0  0  0  0  0  0  0  0  0  0
   -5.6156    0.4125    0.0000 C   0  0  0  0  0  0  0  0  0  0  0  0
   -4.9011    0.8250    0.0000 C   0  0  0  0  0  0  0  0  0  0  0  0
   -4.1867    0.4125    0.0000 C   0  0  0  0  0  0  0  0  0  0  0  0
   -3.4722    0.8250    0.0000 C   0  0  0  0  0  0  0  0  0  0  0  0
   -2.7577    0.4125    0.0000 C   0  0  0  0  0  0  0  0  0  0  0  0
   -2.0432    0.8250    0.0000 C   0  0  0  0  0  0  0  0  0  0  0  0
   -7.0445   -0.4125    0.0000 O   0  0  0  0  0  0  0  0  0  0  0  0
   -7.0445    2.0625    0.0000 N   0  0  0  0  0  0  0  0  0  0  0  0
  1  2  2  0  0  0  0
  2  3  1  0  0  0  0
  3  4  2  0  0  0  0
  4  5  1  0  0  0  0
  5  6  1  0  0  0  0
  2  6  1  0  0  0  0
  6  7  2  0  0  0  0
  7  8  1  0  0  0  0
  8  9  2  0  0  0  0
  1  9  1  0  0  0  0
  9 10  1  0  0  0  0
 10 11  2  0  0  0  0
 10 12  1  0  0  0  0
 12 13  1  0  0  0  0
 13 14  2  0  0  0  0
 14 15  1  0  0  0  0
 15 16  2  0  0  0  0
 16 17  1  0  0  0  0
 17 18  2  0  0  0  0
 13 18  1  0  0  0  0
 12 19  1  0  0  0  0
 19 20  1  0  0  0  0
 20 21  1  0  0  0  0
 21 22  1  0  0  0  0
 22 23  1  0  0  0  0
 23 24  1  0  0  0  0
 21 25  2  0  0  0  0
  5 26  1  0  0  0  0
  4 27  1  0  0  0  0
 27 28  1  0  0  0  0
 28 29  1  0  0  0  0
 29 30  2  0  0  0  0
 30 31  1  0  0  0  0
 31 32  2  0  0  0  0
 32 33  1  0  0  0  0
 33 34  2  0  0  0  0
 29 34  1  0  0  0  0
 32 35  1  0  0  0  0
 35 36  2  0  0  0  0
 36 37  1  4  0  0  0
 37 38  1  0  0  0  0
 38 39  1  0  0  0  0
 39 40  1  0  0  0  0
 40 41  1  0  0  0  0
 41 42  1  0  0  0  0
 42 43  1  0  0  0  0
 43 44  1  0  0  0  0
 37 45  2  0  0  0  0
 35 46  1  0  0  0  0
M  END
>  <Name>
Dabigatran etexilate

>  <CAS>
211915-06-9

>  <Formula>
C34H41N7O5

>  <MolWt>
627.73 

>  <Bioactivity>
Dabigatran etexilate is an oral prodrug that is metabolized by a serum esterase to dabigatran. It is a synthetic, competitive and reversible direct thrombin inhibitor. Inhibition of thrombin disrupts the coagulation cascade and inhibits the formation of clots. Dabigatran etexilate may be used to decrease the risk of venous thromboembolic events in patients who have undergone total hip or knee replacement surgery, or to prevent stroke and systemic embolism in patients with atrial fibrillation, in whom anticoagulation therapy is indicated. In contrast to warfarin, because its anticoagulant effects are predictable, lab monitoring is not necessary. FDA approved on October 19, 2010.

>  <Pathways>
Angiogenesis

>  <Target>
Thrombin inhibitor

>  <Receptor>
Thrombin

>  <Reference>
1. Squizzato A, et al. Intern Emerg Med. 2009 Dec;4(6):479-84. 

$$$$
T0276
  Mrv1561503291623562D          

 32 35  0  0  1  0            999 V2000
    0.6490   -4.1932    0.0000 C   0  0  1  0  0  0  0  0  0  0  0  0
    1.3634   -3.7807    0.0000 O   0  0  0  0  0  0  0  0  0  0  0  0
    2.0779   -4.1932    0.0000 C   0  0  0  0  0  0  0  0  0  0  0  0
    2.0779   -5.0182    0.0000 O   0  0  0  0  0  0  0  0  0  0  0  0
    2.7924   -3.7807    0.0000 C   0  0  0  0  0  0  0  0  0  0  0  0
    3.5068   -4.1932    0.0000 C   0  0  0  0  0  0  0  0  0  0  0  0
    4.2213   -3.7807    0.0000 C   0  0  0  0  0  0  0  0  0  0  0  0
    4.9358   -4.1932    0.0000 C   0  0  0  0  0  0  0  0  0  0  0  0
    0.3134   -3.4395    0.0000 C   0  0  0  0  0  0  0  0  0  0  0  0
   -0.5071   -3.5258    0.0000 C   0  0  0  0  0  0  0  0  0  0  0  0
   -0.9920   -2.8583    0.0000 C   0  0  0  0  0  0  0  0  0  0  0  0
   -0.6564   -2.1047    0.0000 C   0  0  0  0  0  0  0  0  0  0  0  0
   -1.1414   -1.4372    0.0000 C   0  0  0  0  0  0  0  0  0  0  0  0
   -1.9619   -1.5235    0.0000 C   0  0  0  0  0  0  0  0  0  0  0  0
   -2.4468   -0.8560    0.0000 C   0  0  0  0  0  0  0  0  0  0  0  0
   -2.1112   -0.1023    0.0000 C   0  0  0  0  0  0  0  0  0  0  0  0
   -2.5961    0.5651    0.0000 O   0  0  0  0  0  0  0  0  0  0  0  0
   -1.2907   -0.0161    0.0000 C   0  0  0  0  0  0  0  0  0  0  0  0
   -0.8058   -0.6835    0.0000 C   0  0  0  0  0  0  0  0  0  0  0  0
   -2.2974   -2.2771    0.0000 C   0  0  0  0  0  0  0  0  0  0  0  0
   -1.8125   -2.9446    0.0000 C   0  0  0  0  0  0  0  0  0  0  0  0
   -0.3209   -1.3510    0.0000 C   0  0  0  0  0  0  0  0  0  0  0  0
    0.1640   -2.0184    0.0000 C   0  0  0  0  0  0  0  0  0  0  0  0
    0.4996   -1.2647    0.0000 O   0  0  0  0  0  0  0  0  0  0  0  0
    0.6490   -2.6859    0.0000 C   0  0  0  0  0  0  0  0  0  0  0  0
   -0.6786   -4.3327    0.0000 C   0  0  0  0  0  0  0  0  0  0  0  0
    0.0359   -4.7452    0.0000 C   0  0  0  0  0  0  0  0  0  0  0  0
    1.1384   -3.4395    0.0000 C   0  0  0  0  0  0  0  0  0  0  0  0
    1.1339   -4.8606    0.0000 C   0  0  0  0  0  0  0  0  0  0  0  0
    1.8483   -5.2731    0.0000 O   0  0  0  0  0  0  0  0  0  0  0  0
    0.7983   -5.6143    0.0000 C   0  0  0  0  0  0  0  0  0  0  0  0
    1.2832   -6.2818    0.0000 O   0  0  0  0  0  0  0  0  0  0  0  0
  1  2  1  6  0  0  0
  2  3  1  0  0  0  0
  3  4  2  0  0  0  0
  3  5  1  0  0  0  0
  5  6  1  0  0  0  0
  6  7  1  0  0  0  0
  7  8  1  0  0  0  0
  1  9  1  0  0  0  0
  9 10  1  0  0  0  0
 10 11  1  0  0  0  0
 11 12  1  0  0  0  0
 12 13  1  0  0  0  0
 13 14  1  0  0  0  0
 14 15  2  0  0  0  0
 15 16  1  0  0  0  0
 16 17  2  0  0  0  0
 16 18  1  0  0  0  0
 18 19  1  0  0  0  0
 13 19  1  0  0  0  0
 14 20  1  0  0  0  0
 20 21  1  0  0  0  0
 11 21  1  0  0  0  0
 13 22  1  0  0  0  0
 12 23  1  0  0  0  0
 23 24  1  0  0  0  0
 23 25  1  0  0  0  0
  9 25  1  0  0  0  0
 10 26  1  0  0  0  0
 26 27  1  0  0  0  0
  1 27  1  0  0  0  0
  9 28  1  0  0  0  0
  1 29  1  1  0  0  0
 29 30  2  0  0  0  0
 29 31  1  0  0  0  0
 31 32  1  0  0  0  0
M  END
>  <Name>
Hydrocortisone Valerate

>  <CAS>
57524-89-7

>  <Formula>
C26H38O6

>  <MolWt>
446.58 

>  <Bioactivity>
Cortisol is a steroid hormone, in the glucocorticoid class of hormones, and is produced in humans by the zona fasciculata of the adrenal cortex within the adrenal gland. It is released in response to stress and low blood glucose.

>  <Pathways>
Endocrinology/ Hormones

>  <Target>
Glucocorticoid Receptor agonist

>  <Receptor>
Glucocorticoid receptor

>  <Reference>
1. Suzuki G, et al. Sci Total Environ. 2015 May 9;527-528C:328-334.

$$$$
T0281
  Mrv1561503291623562D          

 47 50  0  0  1  0            999 V2000
   -0.8011   -0.3875    0.0000 C   0  0  1  0  0  0  0  0  0  0  0  0
   -0.8011    0.4375    0.0000 C   0  0  2  0  0  0  0  0  0  0  0  0
   -0.8011    1.2625    0.0000 O   0  0  0  0  0  0  0  0  0  0  0  0
   -0.0866    0.8500    0.0000 C   0  0  0  0  0  0  0  0  0  0  0  0
   -0.0866    1.6750    0.0000 O   0  0  0  0  0  0  0  0  0  0  0  0
    0.6279    0.4375    0.0000 C   0  0  0  0  0  0  0  0  0  0  0  0
    1.3423    0.8500    0.0000 C   0  0  0  0  0  0  0  0  0  0  0  0
    1.3423    1.6750    0.0000 O   0  0  0  0  0  0  0  0  0  0  0  0
    2.0568    0.4375    0.0000 C   0  0  0  0  0  0  0  0  0  0  0  0
    2.7713    0.8500    0.0000 C   0  0  0  0  0  0  0  0  0  0  0  0
    2.7713    1.6750    0.0000 O   0  0  0  0  0  0  0  0  0  0  0  0
    3.4858    0.4375    0.0000 C   0  0  0  0  0  0  0  0  0  0  0  0
    3.4858   -0.3875    0.0000 C   0  0  0  0  0  0  0  0  0  0  0  0
    2.7713   -0.8000    0.0000 C   0  0  0  0  0  0  0  0  0  0  0  0
    2.0568   -0.3875    0.0000 C   0  0  0  0  0  0  0  0  0  0  0  0
    1.3423   -0.8000    0.0000 C   0  0  0  0  0  0  0  0  0  0  0  0
    0.6279   -0.3875    0.0000 C   0  0  1  0  0  0  0  0  0  0  0  0
   -0.0866   -0.8000    0.0000 C   0  0  2  0  0  0  0  0  0  0  0  0
   -0.0866   -1.6250    0.0000 O   0  0  0  0  0  0  0  0  0  0  0  0
    1.3423   -1.6250    0.0000 C   0  0  0  0  0  0  0  0  0  0  0  0
    2.7713   -1.6250    0.0000 Cl  0  0  0  0  0  0  0  0  0  0  0  0
   -1.5155    0.8500    0.0000 C   0  0  0  0  0  0  0  0  0  0  0  0
   -1.5155    1.6750    0.0000 O   0  0  0  0  0  0  0  0  0  0  0  0
   -2.2300    0.4375    0.0000 C   0  0  0  0  0  0  0  0  0  0  0  0
   -2.2300   -0.3875    0.0000 C   0  0  0  0  0  0  0  0  0  0  0  0
   -2.9445   -0.8000    0.0000 O   0  0  0  0  0  0  0  0  0  0  0  0
   -1.5155   -0.8000    0.0000 C   0  0  1  0  0  0  0  0  0  0  0  0
   -1.5155   -1.6250    0.0000 N   0  0  0  0  0  0  0  0  0  0  0  0
   -0.8011   -2.0375    0.0000 C   0  0  0  0  0  0  0  0  0  0  0  0
   -2.2300   -2.0375    0.0000 C   0  0  0  0  0  0  0  0  0  0  0  0
   -2.9445    0.8500    0.0000 C   0  0  0  0  0  0  0  0  0  0  0  0
   -2.9445    1.6750    0.0000 O   0  0  0  0  0  0  0  0  0  0  0  0
   -3.6590    0.4375    0.0000 N   0  0  0  0  0  0  0  0  0  0  0  0
    7.5149    0.2062    0.0000 C   0  0  0  0  0  0  0  0  0  0  0  0
    7.5149   -0.6187    0.0000 C   0  0  0  0  0  0  0  0  0  0  0  0
    8.2294   -1.0312    0.0000 S   0  0  0  0  0  0  0  0  0  0  0  0
    8.9438   -1.4437    0.0000 O   0  0  0  0  0  0  0  0  0  0  0  0
    8.6419   -0.3168    0.0000 O   0  0  0  0  0  0  0  0  0  0  0  0
    7.8169   -1.7457    0.0000 O   0  0  0  0  0  0  0  0  0  0  0  0
    6.8004   -1.0312    0.0000 C   0  0  0  0  0  0  0  0  0  0  0  0
    6.0859   -0.6187    0.0000 C   0  0  0  0  0  0  0  0  0  0  0  0
    6.0859    0.2063    0.0000 C   0  0  0  0  0  0  0  0  0  0  0  0
    6.8004    0.6187    0.0000 C   0  0  0  0  0  0  0  0  0  0  0  0
    6.8004    1.4437    0.0000 C   0  0  0  0  0  0  0  0  0  0  0  0
    6.0859    1.8563    0.0000 O   0  0  0  0  0  0  0  0  0  0  0  0
    7.5149    1.8562    0.0000 O   0  0  0  0  0  0  0  0  0  0  0  0
    5.3715    0.6188    0.0000 O   0  0  0  0  0  0  0  0  0  0  0  0
  1  2  1  0  0  0  0
  2  3  1  6  0  0  0
  2  4  1  0  0  0  0
  4  5  2  0  0  0  0
  4  6  1  0  0  0  0
  6  7  2  0  0  0  0
  7  8  1  0  0  0  0
  7  9  1  0  0  0  0
  9 10  2  0  0  0  0
 10 11  1  0  0  0  0
 10 12  1  0  0  0  0
 12 13  2  0  0  0  0
 13 14  1  0  0  0  0
 14 15  2  0  0  0  0
  9 15  1  0  0  0  0
 15 16  1  0  0  0  0
 16 17  1  0  0  0  0
 17  6  1  1  0  0  0
 17 18  1  0  0  0  0
  1 18  1  0  0  0  0
 18 19  1  6  0  0  0
 16 20  2  0  0  0  0
 14 21  1  0  0  0  0
  2 22  1  0  0  0  0
 22 23  2  0  0  0  0
 22 24  1  0  0  0  0
 24 25  1  0  0  0  0
 25 26  2  0  0  0  0
 25 27  1  0  0  0  0
  1 27  1  1  0  0  0
 27 28  1  6  0  0  0
 28 29  1  0  0  0  0
 28 30  1  0  0  0  0
 24 31  2  0  0  0  0
 31 32  1  0  0  0  0
 31 33  1  0  0  0  0
 34 35  2  0  0  0  0
 35 36  1  0  0  0  0
 36 37  1  0  0  0  0
 36 38  2  0  0  0  0
 36 39  2  0  0  0  0
 35 40  1  0  0  0  0
 40 41  2  0  0  0  0
 41 42  1  0  0  0  0
 42 43  2  0  0  0  0
 34 43  1  0  0  0  0
 43 44  1  0  0  0  0
 44 45  1  0  0  0  0
 44 46  2  0  0  0  0
 42 47  1  0  0  0  0
M  END
>  <Name>
Meclocycline sulfosalicylate salt

>  <CAS>
73816-42-9

>  <Formula>
C22H21ClN2O8.C7H6O6S

>  <MolWt>
695.05 

>  <Bioactivity>
Meclocycline (INN) is a tetracycline antibiotic. It is used topically (i.e. for skin infections) as it is totally insoluble in water and may cause liver and kidney damage if given systemically.

>  <Pathways>
Microbiology & Virology

>  <Target>
Antibiotic

>  <Receptor>
Others

>  <Reference>
1. Grio R, et al. Minerva Ginecol. 1986 Mar;38(3):163-5.

$$$$
T0979
  Mrv1561503291623562D          

 36 37  0  0  0  0            999 V2000
   -3.3832   -1.1526    0.0000 C   0  0  0  0  0  0  0  0  0  0  0  0
   -3.3832   -1.9776    0.0000 C   0  0  0  0  0  0  0  0  0  0  0  0
   -4.0977   -2.3901    0.0000 C   0  0  0  0  0  0  0  0  0  0  0  0
   -4.8122   -1.9776    0.0000 C   0  0  0  0  0  0  0  0  0  0  0  0
   -4.8122   -1.1526    0.0000 C   0  0  0  0  0  0  0  0  0  0  0  0
   -5.5266   -0.7401    0.0000 C   0  0  0  0  0  0  0  0  0  0  0  0
   -6.2411   -1.1526    0.0000 N   0  0  0  0  0  0  0  0  0  0  0  0
   -5.5266    0.0849    0.0000 C   0  0  0  0  0  0  0  0  0  0  0  0
   -4.8122    0.4974    0.0000 C   0  0  0  0  0  0  0  0  0  0  0  0
   -4.0977    0.0849    0.0000 N   0  3  0  0  0  0  0  0  0  0  0  0
   -4.0977   -0.7401    0.0000 C   0  0  0  0  0  0  0  0  0  0  0  0
   -3.3832    0.4974    0.0000 C   0  0  0  0  0  0  0  0  0  0  0  0
   -2.6688    0.0849    0.0000 C   0  0  0  0  0  0  0  0  0  0  0  0
   -1.9543    0.4974    0.0000 C   0  0  0  0  0  0  0  0  0  0  0  0
   -1.2398    0.0849    0.0000 C   0  0  0  0  0  0  0  0  0  0  0  0
   -0.5253    0.4974    0.0000 C   0  0  0  0  0  0  0  0  0  0  0  0
    0.1891    0.0849    0.0000 C   0  0  0  0  0  0  0  0  0  0  0  0
    0.9036    0.4974    0.0000 C   0  0  0  0  0  0  0  0  0  0  0  0
    1.6181    0.0849    0.0000 C   0  0  0  0  0  0  0  0  0  0  0  0
    2.3325    0.4974    0.0000 C   0  0  0  0  0  0  0  0  0  0  0  0
    3.0470    0.0849    0.0000 C   0  0  0  0  0  0  0  0  0  0  0  0
    3.7615    0.4974    0.0000 N   0  3  0  0  0  0  0  0  0  0  0  0
    4.4760    0.0849    0.0000 C   0  0  0  0  0  0  0  0  0  0  0  0
    5.1904    0.4974    0.0000 C   0  0  0  0  0  0  0  0  0  0  0  0
    5.1904    1.3224    0.0000 C   0  0  0  0  0  0  0  0  0  0  0  0
    5.9049    1.7349    0.0000 N   0  0  0  0  0  0  0  0  0  0  0  0
    4.4760    1.7349    0.0000 C   0  0  0  0  0  0  0  0  0  0  0  0
    3.7615    1.3224    0.0000 C   0  0  0  0  0  0  0  0  0  0  0  0
    3.0470    1.7349    0.0000 C   0  0  0  0  0  0  0  0  0  0  0  0
    5.9049    0.0849    0.0000 C   0  0  0  0  0  0  0  0  0  0  0  0
    5.9049   -0.7401    0.0000 C   0  0  0  0  0  0  0  0  0  0  0  0
    5.1904   -1.1526    0.0000 C   0  0  0  0  0  0  0  0  0  0  0  0
    4.4760   -0.7401    0.0000 C   0  0  0  0  0  0  0  0  0  0  0  0
   -4.8122    1.3224    0.0000 C   0  0  0  0  0  0  0  0  0  0  0  0
    8.2620    0.0000    0.0000 Cl  0  5  0  0  0  0  0  0  0  0  0  0
    0.0000   -4.0401    0.0000 Cl  0  5  0  0  0  0  0  0  0  0  0  0
  1  2  2  0  0  0  0
  2  3  1  0  0  0  0
  3  4  2  0  0  0  0
  4  5  1  0  0  0  0
  5  6  2  0  0  0  0
  6  7  1  0  0  0  0
  6  8  1  0  0  0  0
  8  9  2  0  0  0  0
  9 10  1  0  0  0  0
 10 11  2  0  0  0  0
  1 11  1  0  0  0  0
  5 11  1  0  0  0  0
 10 12  1  0  0  0  0
 12 13  1  0  0  0  0
 13 14  1  0  0  0  0
 14 15  1  0  0  0  0
 15 16  1  0  0  0  0
 16 17  1  0  0  0  0
 17 18  1  0  0  0  0
 18 19  1  0  0  0  0
 19 20  1  0  0  0  0
 20 21  1  0  0  0  0
 21 22  1  0  0  0  0
 22 23  2  0  0  0  0
 23 24  1  0  0  0  0
 24 25  2  0  0  0  0
 25 26  1  0  0  0  0
 25 27  1  0  0  0  0
 27 28  2  0  0  0  0
 22 28  1  0  0  0  0
 28 29  1  0  0  0  0
 24 30  1  0  0  0  0
 30 31  2  0  0  0  0
 31 32  1  0  0  0  0
 32 33  2  0  0  0  0
 23 33  1  0  0  0  0
  9 34  1  0  0  0  0
M  CHG  4  10   1  22   1  35  -1  36  -1
M  END
>  <Name>
Dequalinium chloride

>  <CAS>
522-51-0

>  <Formula>
C30H40Cl2N4

>  <MolWt>
527.59 

>  <Bioactivity>
A topical bacteriostat that is available as various salts. It is used in wound dressings and mouth infections and may also have antifungal action, but may cause skin ulceration.

>  <Pathways>
Tyrosine Kinase/Adaptors

>  <Target>
PKC inhibitor

>  <Receptor>
PKC

>  <Reference>
1. Manetta A, et al. Gynecol Oncol, 1993, 50(1), 38-44.

$$$$
T1677
  Mrv1561503291623562D          

 41 45  0  0  1  0            999 V2000
   -5.0013   -1.2375    0.0000 C   0  0  1  0  0  0  0  0  0  0  0  0
   -5.7158   -1.6500    0.0000 S   0  0  0  0  0  0  0  0  0  0  0  0
   -6.4302   -1.2375    0.0000 C   0  0  0  0  0  0  0  0  0  0  0  0
   -7.1447   -1.6500    0.0000 C   0  0  0  0  0  0  0  0  0  0  0  0
   -7.9572   -1.7933    0.0000 C   0  0  0  0  0  0  0  0  0  0  0  0
   -7.6750   -1.0180    0.0000 C   0  0  0  0  0  0  0  0  0  0  0  0
   -6.8625   -2.4252    0.0000 C   0  0  0  0  0  0  0  0  0  0  0  0
   -7.3928   -3.0572    0.0000 C   0  0  0  0  0  0  0  0  0  0  0  0
   -7.1107   -3.8325    0.0000 O   0  0  0  0  0  0  0  0  0  0  0  0
   -8.2053   -2.9140    0.0000 O   0  0  0  0  0  0  0  0  0  0  0  0
   -4.2868   -1.6500    0.0000 C   0  0  0  0  0  0  0  0  0  0  0  0
   -3.5724   -1.2375    0.0000 C   0  0  0  0  0  0  0  0  0  0  0  0
   -2.8579   -1.6500    0.0000 C   0  0  0  0  0  0  0  0  0  0  0  0
   -2.8579   -2.4750    0.0000 C   0  0  0  0  0  0  0  0  0  0  0  0
   -3.5724   -2.8875    0.0000 C   0  0  0  0  0  0  0  0  0  0  0  0
   -4.2868   -2.4750    0.0000 C   0  0  0  0  0  0  0  0  0  0  0  0
   -2.1434   -1.2375    0.0000 C   0  0  0  0  0  0  0  0  0  0  0  0
   -1.4289   -1.6500    0.0000 C   0  0  0  0  0  0  0  0  0  0  0  0
   -0.7145   -1.2375    0.0000 C   0  0  0  0  0  0  0  0  0  0  0  0
   -0.0000   -1.6500    0.0000 N   0  0  0  0  0  0  0  0  0  0  0  0
    0.7145   -1.2375    0.0000 C   0  0  0  0  0  0  0  0  0  0  0  0
    0.7145   -0.4125    0.0000 C   0  0  0  0  0  0  0  0  0  0  0  0
    1.4289    0.0000    0.0000 C   0  0  0  0  0  0  0  0  0  0  0  0
    2.1434   -0.4125    0.0000 C   0  0  0  0  0  0  0  0  0  0  0  0
    2.1434   -1.2375    0.0000 C   0  0  0  0  0  0  0  0  0  0  0  0
    1.4289   -1.6500    0.0000 C   0  0  0  0  0  0  0  0  0  0  0  0
    2.8579   -1.6500    0.0000 Cl  0  0  0  0  0  0  0  0  0  0  0  0
   -0.0000    0.0000    0.0000 C   0  0  0  0  0  0  0  0  0  0  0  0
   -0.7145   -0.4125    0.0000 C   0  0  0  0  0  0  0  0  0  0  0  0
   -5.0013   -0.4125    0.0000 C   0  0  0  0  0  0  0  0  0  0  0  0
   -5.7158   -0.0000    0.0000 C   0  0  0  0  0  0  0  0  0  0  0  0
   -5.7158    0.8250    0.0000 C   0  0  0  0  0  0  0  0  0  0  0  0
   -6.4302    1.2375    0.0000 C   0  0  0  0  0  0  0  0  0  0  0  0
   -6.4302    2.0625    0.0000 C   0  0  0  0  0  0  0  0  0  0  0  0
   -5.7158    2.4750    0.0000 C   0  0  0  0  0  0  0  0  0  0  0  0
   -5.0013    2.0625    0.0000 C   0  0  0  0  0  0  0  0  0  0  0  0
   -5.0013    1.2375    0.0000 C   0  0  0  0  0  0  0  0  0  0  0  0
   -7.1447    0.8250    0.0000 C   0  0  0  0  0  0  0  0  0  0  0  0
   -7.8592    0.4125    0.0000 C   0  0  0  0  0  0  0  0  0  0  0  0
   -7.5572    1.5395    0.0000 C   0  0  0  0  0  0  0  0  0  0  0  0
   -6.7322    0.1105    0.0000 O   0  0  0  0  0  0  0  0  0  0  0  0
  1  2  1  6  0  0  0
  2  3  1  0  0  0  0
  3  4  1  0  0  0  0
  4  5  1  0  0  0  0
  5  6  1  0  0  0  0
  4  6  1  0  0  0  0
  4  7  1  0  0  0  0
  7  8  1  0  0  0  0
  8  9  1  0  0  0  0
  8 10  2  0  0  0  0
  1 11  1  0  0  0  0
 11 12  2  0  0  0  0
 12 13  1  0  0  0  0
 13 14  2  0  0  0  0
 14 15  1  0  0  0  0
 15 16  2  0  0  0  0
 11 16  1  0  0  0  0
 13 17  1  0  0  0  0
 17 18  2  0  0  0  0
 18 19  1  0  0  0  0
 19 20  2  0  0  0  0
 20 21  1  0  0  0  0
 21 22  2  0  0  0  0
 22 23  1  0  0  0  0
 23 24  2  0  0  0  0
 24 25  1  0  0  0  0
 25 26  2  0  0  0  0
 21 26  1  0  0  0  0
 25 27  1  0  0  0  0
 22 28  1  0  0  0  0
 28 29  2  0  0  0  0
 19 29  1  0  0  0  0
  1 30  1  0  0  0  0
 30 31  1  0  0  0  0
 31 32  1  0  0  0  0
 32 33  2  0  0  0  0
 33 34  1  0  0  0  0
 34 35  2  0  0  0  0
 35 36  1  0  0  0  0
 36 37  2  0  0  0  0
 32 37  1  0  0  0  0
 33 38  1  0  0  0  0
 38 39  1  0  0  0  0
 38 40  1  0  0  0  0
 38 41  1  0  0  0  0
M  END
>  <Name>
Montelukast

>  <CAS>
158966-92-8

>  <Formula>
C35H36ClNO3S

>  <MolWt>
586.18 

>  <Bioactivity>
Montelukast is a leukotriene receptor antagonist (LTRA) used for the maintenance treatment of asthma and to relieve symptoms of seasonal allergies. It is usually administered orally. Montelukast blocks the action of leukotriene D4 on the cysteinyl leukotriene receptor CysLT1 in the lungs and bronchial tubes by binding to it. This reduces the bronchoconstriction otherwise caused by the leukotriene, and results in less inflammation. Because of its method of operation, it is not useful for the treatment of acute asthma attacks. Again because of its very specific locus of operation, it does not interact with other allergy medications such as theophylline. Montelukast is marketed in United States and many other countries by Merck & Co. with the brand name Singulair®. It is available as oral tablets, chewable tablets, and oral granules. In India and other countries, it is also marketed under the brand name Montair®, produced by Indian company Cipla.


>  <Pathways>
Immunology/Inflammation

>  <Target>
CysLTR antagonist

>  <Receptor>
ALOX5;CysLTR1

>  <Reference>
1. Zhang YJ, et al. Acta Pharmacol Sin. 2004 Oct;25(10):1341-6.

$$$$
59-33-6
  Mrv1561503291623562D          

 29 29  0  0  0  0            999 V2000
   -0.1021    1.0411    0.0000 C   0  0  0  0  0  0  0  0  0  0  0  0
   -0.8165    0.6286    0.0000 C   0  0  0  0  0  0  0  0  0  0  0  0
   -0.8165   -0.1964    0.0000 C   0  0  0  0  0  0  0  0  0  0  0  0
   -0.1021   -0.6089    0.0000 N   0  0  0  0  0  0  0  0  0  0  0  0
   -0.1021   -1.4339    0.0000 C   0  0  0  0  0  0  0  0  0  0  0  0
    0.6124   -1.8464    0.0000 C   0  0  0  0  0  0  0  0  0  0  0  0
    0.6124   -2.6714    0.0000 C   0  0  0  0  0  0  0  0  0  0  0  0
   -0.1021   -3.0839    0.0000 C   0  0  0  0  0  0  0  0  0  0  0  0
   -0.8165   -2.6714    0.0000 C   0  0  0  0  0  0  0  0  0  0  0  0
   -0.8165   -1.8464    0.0000 N   0  0  0  0  0  0  0  0  0  0  0  0
    0.6124   -0.1964    0.0000 C   0  0  0  0  0  0  0  0  0  0  0  0
    1.3269   -0.6089    0.0000 C   0  0  0  0  0  0  0  0  0  0  0  0
    2.0413   -0.1964    0.0000 N   0  0  0  0  0  0  0  0  0  0  0  0
    2.0413    0.6286    0.0000 C   0  0  0  0  0  0  0  0  0  0  0  0
    2.7558   -0.6089    0.0000 C   0  0  0  0  0  0  0  0  0  0  0  0
   -1.5310    1.0411    0.0000 C   0  0  0  0  0  0  0  0  0  0  0  0
   -1.5310    1.8661    0.0000 C   0  0  0  0  0  0  0  0  0  0  0  0
   -0.8165    2.2786    0.0000 C   0  0  0  0  0  0  0  0  0  0  0  0
   -0.1021    1.8661    0.0000 C   0  0  0  0  0  0  0  0  0  0  0  0
   -0.8165    3.1036    0.0000 O   0  0  0  0  0  0  0  0  0  0  0  0
   -1.5310    3.5161    0.0000 C   0  0  0  0  0  0  0  0  0  0  0  0
    7.9415   -0.0000    0.0000 O   0  0  0  0  0  0  0  0  0  0  0  0
    7.1165    0.0000    0.0000 C   0  0  0  0  0  0  0  0  0  0  0  0
    6.7040   -0.7145    0.0000 O   0  0  0  0  0  0  0  0  0  0  0  0
    6.7040    0.7145    0.0000 C   0  0  0  0  0  0  0  0  0  0  0  0
    5.8790    0.7145    0.0000 C   0  0  0  0  0  0  0  0  0  0  0  0
    5.4665    0.0000    0.0000 C   0  0  0  0  0  0  0  0  0  0  0  0
    5.8790   -0.7145    0.0000 O   0  0  0  0  0  0  0  0  0  0  0  0
    4.6415    0.0000    0.0000 O   0  0  0  0  0  0  0  0  0  0  0  0
  1  2  2  0  0  0  0
  2  3  1  0  0  0  0
  3  4  1  0  0  0  0
  4  5  1  0  0  0  0
  5  6  2  0  0  0  0
  6  7  1  0  0  0  0
  7  8  2  0  0  0  0
  8  9  1  0  0  0  0
  9 10  2  0  0  0  0
  5 10  1  0  0  0  0
  4 11  1  0  0  0  0
 11 12  1  0  0  0  0
 12 13  1  0  0  0  0
 13 14  1  0  0  0  0
 13 15  1  0  0  0  0
  2 16  1  0  0  0  0
 16 17  2  0  0  0  0
 17 18  1  0  0  0  0
 18 19  2  0  0  0  0
  1 19  1  0  0  0  0
 18 20  1  0  0  0  0
 20 21  1  0  0  0  0
 22 23  2  0  0  0  0
 23 24  1  0  0  0  0
 23 25  1  0  0  0  0
 25 26  2  0  0  0  0
 26 27  1  0  0  0  0
 27 28  2  0  0  0  0
 27 29  1  0  0  0  0
M  END
>  <Name>
Pyrilamine maleate

>  <CAS>
59-33-6

>  <Formula>
C21H27N3O5

>  <MolWt>
401.47 

>  <Bioactivity>
A histamine H1 antagonist. It has mild hypnotic properties and some local anesthetic action and is used for allergies (including skin eruptions) both parenterally and locally. It is a common ingredient of cold remedies. 

>  <Pathways>
Neuroscience

>  <Target>
Histamine Receptor antagonist

>  <Receptor>
Histamine H1 receptor

>  <Reference>
1. Moriyama K, et al. Inflamm Res. 2009 Dec;58(12):873-80. 

$$$$
61-16-5
  Mrv1561503291623562D          

 17 15  0  0  0  0            999 V2000
    0.4125    0.0000    0.0000 H   0  3  0  0  0  0  0  0  0  0  0  0
    4.9131   -0.2750    0.0000 C   0  0  0  0  0  0  0  0  0  0  0  0
    4.9131   -1.1000    0.0000 C   0  0  0  0  0  0  0  0  0  0  0  0
    5.6275   -1.5125    0.0000 O   0  0  0  0  0  0  0  0  0  0  0  0
    5.6275   -2.3375    0.0000 C   0  0  0  0  0  0  0  0  0  0  0  0
    4.1986   -1.5125    0.0000 C   0  0  0  0  0  0  0  0  0  0  0  0
    3.4841   -1.1000    0.0000 C   0  0  0  0  0  0  0  0  0  0  0  0
    3.4841   -0.2750    0.0000 C   0  0  0  0  0  0  0  0  0  0  0  0
    4.1986    0.1375    0.0000 C   0  0  0  0  0  0  0  0  0  0  0  0
    4.1986    0.9625    0.0000 C   0  0  0  0  0  0  0  0  0  0  0  0
    3.4841    1.3750    0.0000 O   0  0  0  0  0  0  0  0  0  0  0  0
    4.9131    1.3750    0.0000 C   0  0  0  0  0  0  0  0  0  0  0  0
    4.9131    2.2000    0.0000 N   0  0  0  0  0  0  0  0  0  0  0  0
    5.6275    0.9625    0.0000 C   0  0  0  0  0  0  0  0  0  0  0  0
    2.7696    0.1375    0.0000 O   0  0  0  0  0  0  0  0  0  0  0  0
    2.7696    0.9625    0.0000 C   0  0  0  0  0  0  0  0  0  0  0  0
   -0.4125    0.0000    0.0000 Cl  0  5  0  0  0  0  0  0  0  0  0  0
  2  3  2  0  0  0  0
  3  4  1  0  0  0  0
  4  5  1  0  0  0  0
  3  6  1  0  0  0  0
  6  7  2  0  0  0  0
  7  8  1  0  0  0  0
  8  9  2  0  0  0  0
  2  9  1  0  0  0  0
  9 10  1  0  0  0  0
 10 11  1  0  0  0  0
 10 12  1  0  0  0  0
 12 13  1  0  0  0  0
 12 14  1  0  0  0  0
  8 15  1  0  0  0  0
 15 16  1  0  0  0  0
M  CHG  2   1   1  17  -1
M  END
>  <Name>
Methoxamine HCl

>  <CAS>
61-16-5

>  <Formula>
C11H17NO3·HCl

>  <MolWt>
247.72 

>  <Bioactivity>
An alpha-1 adrenergic agonist that causes prolonged peripheral VASOCONSTRICTION.


>  <Pathways>
GPCR/G Protein

>  <Target>
Adrenergic Receptor antagonist

>  <Receptor>
Adrenergic Receptor

>  <Reference>
1. Satoh M, et al. Eur J Pharmacol. 1994 Nov 24;265(3):133-9.

$$$$
247257-48-3
  Mrv1561503291623562D          

 36 39  0  0  0  0            999 V2000
    2.0367   -2.9491    0.0000 C   0  0  0  0  0  0  0  0  0  0  0  0
    1.3222   -2.5366    0.0000 C   0  0  0  0  0  0  0  0  0  0  0  0
    1.3222   -1.7116    0.0000 C   0  0  0  0  0  0  0  0  0  0  0  0
    0.6078   -1.2991    0.0000 C   0  0  0  0  0  0  0  0  0  0  0  0
   -0.1067   -1.7116    0.0000 C   0  0  0  0  0  0  0  0  0  0  0  0
   -0.1067   -2.5366    0.0000 N   0  0  0  0  0  0  0  0  0  0  0  0
   -0.8212   -2.9491    0.0000 C   0  0  0  0  0  0  0  0  0  0  0  0
   -1.5356   -2.5366    0.0000 C   0  0  0  0  0  0  0  0  0  0  0  0
   -1.5356   -1.7116    0.0000 C   0  0  0  0  0  0  0  0  0  0  0  0
   -2.2501   -1.2991    0.0000 O   0  0  0  0  0  0  0  0  0  0  0  0
   -0.8212   -1.2991    0.0000 N   0  0  0  0  0  0  0  0  0  0  0  0
   -0.8212   -0.4741    0.0000 C   0  0  0  0  0  0  0  0  0  0  0  0
   -0.1067   -0.0616    0.0000 C   0  0  0  0  0  0  0  0  0  0  0  0
   -0.1067    0.7634    0.0000 C   0  0  0  0  0  0  0  0  0  0  0  0
    0.6078    1.1759    0.0000 C   0  0  0  0  0  0  0  0  0  0  0  0
    1.3222    0.7634    0.0000 C   0  0  0  0  0  0  0  0  0  0  0  0
    1.3222   -0.0616    0.0000 C   0  0  0  0  0  0  0  0  0  0  0  0
    0.6078   -0.4741    0.0000 C   0  0  0  0  0  0  0  0  0  0  0  0
    2.0367    1.1759    0.0000 C   0  0  0  0  0  0  0  0  0  0  0  0
    2.0367    2.0009    0.0000 C   0  0  0  0  0  0  0  0  0  0  0  0
    2.7512    2.4134    0.0000 C   0  0  0  0  0  0  0  0  0  0  0  0
    3.4656    2.0009    0.0000 C   0  0  0  0  0  0  0  0  0  0  0  0
    3.4656    1.1759    0.0000 C   0  0  0  0  0  0  0  0  0  0  0  0
    2.7512    0.7634    0.0000 C   0  0  0  0  0  0  0  0  0  0  0  0
    2.7512   -0.0616    0.0000 C   0  0  0  0  0  0  0  0  0  0  0  0
    3.4186   -0.5465    0.0000 N   0  0  0  0  0  0  0  0  0  0  0  0
    3.1637   -1.3312    0.0000 N   0  0  0  0  0  0  0  0  0  0  0  0
    2.3387   -1.3312    0.0000 N   0  0  0  0  0  0  0  0  0  0  0  0
    2.0837   -0.5465    0.0000 N   0  0  0  0  0  0  0  0  0  0  0  0
   -2.2501   -2.9491    0.0000 C   0  0  0  0  0  0  0  0  0  0  0  0
   -2.2501   -3.7741    0.0000 C   0  0  0  0  0  0  0  0  0  0  0  0
   -1.5356   -4.1866    0.0000 S   0  0  0  0  0  0  0  0  0  0  0  0
   -2.9646   -4.1866    0.0000 N   0  0  0  0  0  0  0  0  0  0  0  0
   -2.9646   -5.0116    0.0000 C   0  0  0  0  0  0  0  0  0  0  0  0
   -3.6791   -3.7741    0.0000 C   0  0  0  0  0  0  0  0  0  0  0  0
   -0.8212   -3.7741    0.0000 C   0  0  0  0  0  0  0  0  0  0  0  0
  1  2  1  0  0  0  0
  2  3  1  0  0  0  0
  3  4  1  0  0  0  0
  4  5  1  0  0  0  0
  5  6  2  0  0  0  0
  6  7  1  0  0  0  0
  7  8  2  0  0  0  0
  8  9  1  0  0  0  0
  9 10  2  0  0  0  0
  9 11  1  0  0  0  0
  5 11  1  0  0  0  0
 11 12  1  0  0  0  0
 12 13  1  0  0  0  0
 13 14  2  0  0  0  0
 14 15  1  0  0  0  0
 15 16  2  0  0  0  0
 16 17  1  0  0  0  0
 17 18  2  0  0  0  0
 13 18  1  0  0  0  0
 16 19  1  0  0  0  0
 19 20  2  0  0  0  0
 20 21  1  0  0  0  0
 21 22  2  0  0  0  0
 22 23  1  0  0  0  0
 23 24  2  0  0  0  0
 19 24  1  0  0  0  0
 24 25  1  0  0  0  0
 25 26  2  0  0  0  0
 26 27  1  0  0  0  0
 27 28  1  0  0  0  0
 28 29  2  0  0  0  0
 25 29  1  0  0  0  0
  8 30  1  0  0  0  0
 30 31  1  0  0  0  0
 31 32  2  0  0  0  0
 31 33  1  0  0  0  0
 33 34  1  0  0  0  0
 33 35  1  0  0  0  0
  7 36  1  0  0  0  0
M  END
>  <Name>
Fimasartan(BR-A-657)

>  <CAS>
247257-48-3

>  <Formula>
C27H31N7OS

>  <MolWt>
501.65 

>  <Bioactivity>
Fimasartan(BR-A-657) is a non-peptide angiotensin II receptor antagonist used for the treatment of hypertension and heart failure.

>  <Pathways>
Angiogensis

>  <Target>
AGTR antagonist

>  <Receptor>
AGTR1

>  <Reference>
1. Ryu S, et al. Biol Pharm Bull. 2013;36(3):467-74.

$$$$
81-27-6
  Mrv1561503291623562D          

 62 69  0  0  1  0            999 V2000
    2.1434   -1.2375    0.0000 C   0  0  1  0  0  0  0  0  0  0  0  0
    1.4289   -1.6500    0.0000 C   0  0  0  0  0  0  0  0  0  0  0  0
    1.4289   -2.4750    0.0000 C   0  0  0  0  0  0  0  0  0  0  0  0
    2.1434   -2.8875    0.0000 C   0  0  0  0  0  0  0  0  0  0  0  0
    2.8579   -2.4750    0.0000 C   0  0  0  0  0  0  0  0  0  0  0  0
    2.8579   -1.6500    0.0000 C   0  0  0  0  0  0  0  0  0  0  0  0
    3.5724   -1.2375    0.0000 C   0  0  0  0  0  0  0  0  0  0  0  0
    4.2868   -1.6500    0.0000 C   0  0  0  0  0  0  0  0  0  0  0  0
    4.2868   -2.4750    0.0000 C   0  0  0  0  0  0  0  0  0  0  0  0
    3.5724   -2.8875    0.0000 C   0  0  0  0  0  0  0  0  0  0  0  0
    3.5724   -3.7125    0.0000 O   0  0  0  0  0  0  0  0  0  0  0  0
    4.2868   -4.1250    0.0000 C   0  0  1  0  0  0  0  0  0  0  0  0
    5.0013   -3.7125    0.0000 C   0  0  1  0  0  0  0  0  0  0  0  0
    5.7158   -4.1250    0.0000 C   0  0  2  0  0  0  0  0  0  0  0  0
    5.7158   -4.9500    0.0000 C   0  0  2  0  0  0  0  0  0  0  0  0
    6.4302   -5.3625    0.0000 O   0  0  0  0  0  0  0  0  0  0  0  0
    5.0013   -5.3625    0.0000 C   0  0  2  0  0  0  0  0  0  0  0  0
    4.2868   -4.9500    0.0000 O   0  0  0  0  0  0  0  0  0  0  0  0
    5.0013   -6.1875    0.0000 C   0  0  0  0  0  0  0  0  0  0  0  0
    4.2868   -6.6000    0.0000 O   0  0  0  0  0  0  0  0  0  0  0  0
    6.4302   -3.7125    0.0000 O   0  0  0  0  0  0  0  0  0  0  0  0
    5.0013   -2.8875    0.0000 O   0  0  0  0  0  0  0  0  0  0  0  0
    2.1434   -3.7125    0.0000 O   0  0  0  0  0  0  0  0  0  0  0  0
    0.7145   -2.8875    0.0000 C   0  0  0  0  0  0  0  0  0  0  0  0
    0.0000   -2.4750    0.0000 C   0  0  0  0  0  0  0  0  0  0  0  0
    0.0000   -1.6500    0.0000 C   0  0  0  0  0  0  0  0  0  0  0  0
    0.7145   -1.2375    0.0000 C   0  0  0  0  0  0  0  0  0  0  0  0
   -0.7145   -1.2375    0.0000 C   0  0  0  0  0  0  0  0  0  0  0  0
   -0.7145   -0.4125    0.0000 O   0  0  0  0  0  0  0  0  0  0  0  0
   -1.4289   -1.6500    0.0000 O   0  0  0  0  0  0  0  0  0  0  0  0
    0.7145   -3.7125    0.0000 O   0  0  0  0  0  0  0  0  0  0  0  0
    2.1434   -0.4125    0.0000 C   0  0  1  0  0  0  0  0  0  0  0  0
    2.8579    0.0000    0.0000 C   0  0  0  0  0  0  0  0  0  0  0  0
    2.8579    0.8250    0.0000 C   0  0  0  0  0  0  0  0  0  0  0  0
    3.5724    1.2375    0.0000 C   0  0  0  0  0  0  0  0  0  0  0  0
    4.2868    0.8250    0.0000 C   0  0  0  0  0  0  0  0  0  0  0  0
    4.2868   -0.0000    0.0000 C   0  0  0  0  0  0  0  0  0  0  0  0
    3.5724   -0.4125    0.0000 C   0  0  0  0  0  0  0  0  0  0  0  0
    5.0013   -0.4125    0.0000 C   0  0  0  0  0  0  0  0  0  0  0  0
    5.7158   -0.0000    0.0000 O   0  0  0  0  0  0  0  0  0  0  0  0
    5.0013   -1.2375    0.0000 O   0  0  0  0  0  0  0  0  0  0  0  0
    3.5724    2.0625    0.0000 O   0  0  0  0  0  0  0  0  0  0  0  0
    2.1434    1.2375    0.0000 C   0  0  0  0  0  0  0  0  0  0  0  0
    1.4289    0.8250    0.0000 C   0  0  0  0  0  0  0  0  0  0  0  0
    1.4289    0.0000    0.0000 C   0  0  0  0  0  0  0  0  0  0  0  0
    0.7145   -0.4125    0.0000 C   0  0  0  0  0  0  0  0  0  0  0  0
   -0.0000    0.0000    0.0000 C   0  0  0  0  0  0  0  0  0  0  0  0
   -0.0000    0.8250    0.0000 C   0  0  0  0  0  0  0  0  0  0  0  0
    0.7145    1.2375    0.0000 C   0  0  0  0  0  0  0  0  0  0  0  0
    0.7145    2.0625    0.0000 O   0  0  0  0  0  0  0  0  0  0  0  0
    0.0000    2.4750    0.0000 C   0  0  1  0  0  0  0  0  0  0  0  0
   -0.7145    2.0625    0.0000 C   0  0  1  0  0  0  0  0  0  0  0  0
   -1.4289    2.4750    0.0000 C   0  0  2  0  0  0  0  0  0  0  0  0
   -1.4289    3.3000    0.0000 C   0  0  2  0  0  0  0  0  0  0  0  0
   -2.1434    3.7125    0.0000 O   0  0  0  0  0  0  0  0  0  0  0  0
   -0.7145    3.7125    0.0000 C   0  0  2  0  0  0  0  0  0  0  0  0
    0.0000    3.3000    0.0000 O   0  0  0  0  0  0  0  0  0  0  0  0
   -0.7145    4.5375    0.0000 C   0  0  0  0  0  0  0  0  0  0  0  0
    0.0000    4.9500    0.0000 O   0  0  0  0  0  0  0  0  0  0  0  0
   -2.1434    2.0625    0.0000 O   0  0  0  0  0  0  0  0  0  0  0  0
   -0.7145    1.2375    0.0000 O   0  0  0  0  0  0  0  0  0  0  0  0
    2.1434    2.0625    0.0000 O   0  0  0  0  0  0  0  0  0  0  0  0
  1  2  1  0  0  0  0
  2  3  2  0  0  0  0
  3  4  1  0  0  0  0
  4  5  1  0  0  0  0
  5  6  2  0  0  0  0
  1  6  1  0  0  0  0
  6  7  1  0  0  0  0
  7  8  2  0  0  0  0
  8  9  1  0  0  0  0
  9 10  2  0  0  0  0
  5 10  1  0  0  0  0
 10 11  1  0  0  0  0
 12 11  1  1  0  0  0
 12 13  1  0  0  0  0
 13 14  1  0  0  0  0
 14 15  1  0  0  0  0
 15 16  1  6  0  0  0
 15 17  1  0  0  0  0
 17 18  1  0  0  0  0
 12 18  1  0  0  0  0
 17 19  1  1  0  0  0
 19 20  1  0  0  0  0
 14 21  1  1  0  0  0
 13 22  1  6  0  0  0
  4 23  2  0  0  0  0
  3 24  1  0  0  0  0
 24 25  2  0  0  0  0
 25 26  1  0  0  0  0
 26 27  2  0  0  0  0
  2 27  1  0  0  0  0
 26 28  1  0  0  0  0
 28 29  2  0  0  0  0
 28 30  1  0  0  0  0
 24 31  1  0  0  0  0
  1 32  1  6  0  0  0
 32 33  1  0  0  0  0
 33 34  2  0  0  0  0
 34 35  1  0  0  0  0
 35 36  2  0  0  0  0
 36 37  1  0  0  0  0
 37 38  2  0  0  0  0
 33 38  1  0  0  0  0
 37 39  1  0  0  0  0
 39 40  2  0  0  0  0
 39 41  1  0  0  0  0
 35 42  1  0  0  0  0
 34 43  1  0  0  0  0
 43 44  1  0  0  0  0
 44 45  2  0  0  0  0
 32 45  1  6  0  0  0
 45 46  1  0  0  0  0
 46 47  2  0  0  0  0
 47 48  1  0  0  0  0
 48 49  2  0  0  0  0
 44 49  1  0  0  0  0
 49 50  1  0  0  0  0
 51 50  1  1  0  0  0
 51 52  1  0  0  0  0
 52 53  1  0  0  0  0
 53 54  1  0  0  0  0
 54 55  1  6  0  0  0
 54 56  1  0  0  0  0
 56 57  1  0  0  0  0
 51 57  1  0  0  0  0
 56 58  1  1  0  0  0
 58 59  1  0  0  0  0
 53 60  1  1  0  0  0
 52 61  1  6  0  0  0
 43 62  2  0  0  0  0
M  END
>  <Name>
Sennoside A

>  <CAS>
81-27-6

>  <Formula>
C42H38O20

>  <MolWt>
862.74 

>  <Bioactivity>
Sennoside A, a kind of irritant laxative isolated from rhei rhizome, causes purgative actions in the intestine.

>  <Pathways>
Metabolism

>  <Target>
MAO inhibitor

>  <Receptor>
MAO

>  <Reference>
1. Hiraoka A, et al. Chem Pharm Bull, 1989, 37(10), 2744-2746.

$$$$
52286-59-6
  Mrv1561503291623562D          

 66 72  0  0  1  0            999 V2000
    3.6826    0.6076    0.0000 C   0  0  1  0  0  0  0  0  0  0  0  0
    3.9629   -0.1684    0.0000 C   0  0  2  0  0  0  0  0  0  0  0  0
    4.7875   -0.1416    0.0000 C   0  0  1  0  0  0  0  0  0  0  0  0
    5.2939   -0.7929    0.0000 C   0  0  1  0  0  0  0  0  0  0  0  0
    5.8002   -1.4442    0.0000 O   0  0  0  0  0  0  0  0  0  0  0  0
    5.4893   -2.2084    0.0000 C   0  0  2  0  0  0  0  0  0  0  0  0
    4.6721   -2.3212    0.0000 O   0  0  0  0  0  0  0  0  0  0  0  0
    4.3612   -3.0854    0.0000 C   0  0  1  0  0  0  0  0  0  0  0  0
    4.8675   -3.7368    0.0000 C   0  0  1  0  0  0  0  0  0  0  0  0
    4.5567   -4.5009    0.0000 O   0  0  0  0  0  0  0  0  0  0  0  0
    5.6848   -3.6239    0.0000 C   0  0  0  0  0  0  0  0  0  0  0  0
    6.1911   -4.2752    0.0000 O   0  0  0  0  0  0  0  0  0  0  0  0
    5.9957   -2.8597    0.0000 C   0  0  1  0  0  0  0  0  0  0  0  0
    6.8129   -2.7469    0.0000 O   0  0  0  0  0  0  0  0  0  0  0  0
    3.5439   -3.1983    0.0000 C   0  0  0  0  0  0  0  0  0  0  0  0
    3.2331   -3.9625    0.0000 O   0  0  0  0  0  0  0  0  0  0  0  0
    5.9452   -0.2865    0.0000 C   0  0  0  0  0  0  0  0  0  0  0  0
    5.8323    0.5307    0.0000 C   0  0  0  0  0  0  0  0  0  0  0  0
    6.4837    1.0371    0.0000 C   0  0  0  0  0  0  0  0  0  0  0  0
    6.3708    1.8543    0.0000 C   0  0  0  0  0  0  0  0  0  0  0  0
    7.0222    2.3607    0.0000 C   0  0  0  0  0  0  0  0  0  0  0  0
    5.6066    2.1652    0.0000 C   0  0  0  0  0  0  0  0  0  0  0  0
    4.6425   -1.2992    0.0000 C   0  0  0  0  0  0  0  0  0  0  0  0
    5.0168    0.6509    0.0000 C   0  0  0  0  0  0  0  0  0  0  0  0
    4.3340    1.1139    0.0000 C   0  0  0  0  0  0  0  0  0  0  0  0
    3.4311   -0.7991    0.0000 C   0  0  2  0  0  0  0  0  0  0  0  0
    3.7114   -1.5750    0.0000 O   0  0  0  0  0  0  0  0  0  0  0  0
    2.6190   -0.6539    0.0000 C   0  0  0  0  0  0  0  0  0  0  0  0
    2.3387    0.1221    0.0000 C   0  0  0  0  0  0  0  0  0  0  0  0
    2.8705    0.7528    0.0000 C   0  0  1  0  0  0  0  0  0  0  0  0
    2.5902    1.5287    0.0000 C   0  0  0  0  0  0  0  0  0  0  0  0
    1.7781    1.6739    0.0000 C   0  0  2  0  0  0  0  0  0  0  0  0
    1.4978    2.4498    0.0000 O   0  0  0  0  0  0  0  0  0  0  0  0
    2.0296    3.0805    0.0000 C   0  0  2  0  0  0  0  0  0  0  0  0
    2.8417    2.9353    0.0000 O   0  0  0  0  0  0  0  0  0  0  0  0
    3.3736    3.5660    0.0000 C   0  0  1  0  0  0  0  0  0  0  0  0
    3.0933    4.3420    0.0000 C   0  0  1  0  0  0  0  0  0  0  0  0
    3.6251    4.9727    0.0000 O   0  0  0  0  0  0  0  0  0  0  0  0
    2.2812    4.4872    0.0000 C   0  0  2  0  0  0  0  0  0  0  0  0
    2.0009    5.2631    0.0000 O   0  0  0  0  0  0  0  0  0  0  0  0
    1.7493    3.8565    0.0000 C   0  0  1  0  0  0  0  0  0  0  0  0
    0.9372    4.0017    0.0000 O   0  0  0  0  0  0  0  0  0  0  0  0
    0.6569    4.7776    0.0000 C   0  0  2  0  0  0  0  0  0  0  0  0
    1.1887    5.4083    0.0000 O   0  0  0  0  0  0  0  0  0  0  0  0
    0.9084    6.1842    0.0000 C   0  0  2  0  0  0  0  0  0  0  0  0
    0.0963    6.3295    0.0000 C   0  0  2  0  0  0  0  0  0  0  0  0
   -0.1840    7.1054    0.0000 O   0  0  0  0  0  0  0  0  0  0  0  0
   -0.4355    5.6987    0.0000 C   0  0  1  0  0  0  0  0  0  0  0  0
   -1.2476    5.8440    0.0000 O   0  0  0  0  0  0  0  0  0  0  0  0
   -0.1552    4.9228    0.0000 C   0  0  1  0  0  0  0  0  0  0  0  0
   -0.6870    4.2921    0.0000 O   0  0  0  0  0  0  0  0  0  0  0  0
    1.4403    6.8149    0.0000 C   0  0  0  0  0  0  0  0  0  0  0  0
    4.1857    3.4208    0.0000 C   0  0  0  0  0  0  0  0  0  0  0  0
    4.7175    4.0515    0.0000 O   0  0  0  0  0  0  0  0  0  0  0  0
    1.2463    1.0432    0.0000 C   0  0  2  0  0  0  0  0  0  0  0  0
    1.5266    0.2673    0.0000 C   0  0  2  0  0  0  0  0  0  0  0  0
    0.9948   -0.3634    0.0000 C   0  0  0  0  0  0  0  0  0  0  0  0
    0.1827   -0.2182    0.0000 C   0  0  0  0  0  0  0  0  0  0  0  0
   -0.0976    0.5577    0.0000 C   0  0  2  0  0  0  0  0  0  0  0  0
   -0.9098    0.7029    0.0000 O   0  0  0  0  0  0  0  0  0  0  0  0
    0.4342    1.1884    0.0000 C   0  0  0  0  0  0  0  0  0  0  0  0
   -0.1776    1.7419    0.0000 C   0  0  0  0  0  0  0  0  0  0  0  0
    0.5510    2.0051    0.0000 C   0  0  0  0  0  0  0  0  0  0  0  0
    1.8069   -0.5086    0.0000 C   0  0  0  0  0  0  0  0  0  0  0  0
    3.4023    1.3835    0.0000 C   0  0  0  0  0  0  0  0  0  0  0  0
    3.7422    1.4304    0.0000 C   0  0  0  0  0  0  0  0  0  0  0  0
  1  2  1  0  0  0  0
  2  3  1  0  0  0  0
  3  4  1  6  0  0  0
  4  5  1  6  0  0  0
  6  5  1  1  0  0  0
  6  7  1  0  0  0  0
  7  8  1  0  0  0  0
  8  9  1  0  0  0  0
  9 10  1  6  0  0  0
  9 11  1  0  0  0  0
 11 12  1  0  0  0  0
 11 13  1  0  0  0  0
  6 13  1  0  0  0  0
 13 14  1  6  0  0  0
  8 15  1  1  0  0  0
 15 16  1  0  0  0  0
  4 17  1  0  0  0  0
 17 18  1  0  0  0  0
 18 19  1  0  0  0  0
 19 20  2  0  0  0  0
 20 21  1  0  0  0  0
 20 22  1  0  0  0  0
  4 23  1  1  0  0  0
  3 24  1  0  0  0  0
 24 25  1  0  0  0  0
  1 25  1  0  0  0  0
  2 26  1  6  0  0  0
 26 27  1  6  0  0  0
 26 28  1  0  0  0  0
 28 29  1  0  0  0  0
 29 30  1  0  0  0  0
  1 30  1  0  0  0  0
 30 31  1  0  0  0  0
 31 32  1  0  0  0  0
 32 33  1  1  0  0  0
 34 33  1  1  0  0  0
 34 35  1  0  0  0  0
 35 36  1  0  0  0  0
 36 37  1  0  0  0  0
 37 38  1  6  0  0  0
 37 39  1  0  0  0  0
 39 40  1  1  0  0  0
 39 41  1  0  0  0  0
 34 41  1  0  0  0  0
 41 42  1  6  0  0  0
 43 42  1  1  0  0  0
 43 44  1  0  0  0  0
 44 45  1  0  0  0  0
 45 46  1  0  0  0  0
 46 47  1  1  0  0  0
 46 48  1  0  0  0  0
 48 49  1  6  0  0  0
 48 50  1  0  0  0  0
 43 50  1  0  0  0  0
 50 51  1  6  0  0  0
 45 52  1  6  0  0  0
 36 53  1  1  0  0  0
 53 54  1  0  0  0  0
 32 55  1  0  0  0  0
 55 56  1  0  0  0  0
 29 56  1  0  0  0  0
 56 57  1  0  0  0  0
 57 58  1  0  0  0  0
 58 59  1  0  0  0  0
 59 60  1  6  0  0  0
 59 61  1  0  0  0  0
 55 61  1  6  0  0  0
 61 62  1  0  0  0  0
 61 63  1  0  0  0  0
 56 64  1  6  0  0  0
 30 65  1  6  0  0  0
  1 66  1  1  0  0  0
M  END
>  <Name>
Ginsenoside Re

>  <CAS>
52286-59-6

>  <Formula>
C48H82O18

>  <MolWt>
947.14 

>  <Bioactivity>
Ginsenoside Re may have properties that inhibit or prevent the growth of tumors.

>  <Pathways>
Others

>  <Target>
Others

>  <Receptor>
Others

>  <Reference>
1. Nam Y, et al. J Appl Toxicol. 2015 Aug;35(8):927-44.

$$$$
T2764
  Mrv1561503291623562D          

 27 31  0  0  1  0            999 V2000
    5.6165    1.1971    0.0000 C   0  0  1  0  0  0  0  0  0  0  0  0
    5.9255    1.9620    0.0000 O   0  0  0  0  0  0  0  0  0  0  0  0
    5.0645    0.5840    0.0000 C   0  0  0  0  0  0  0  0  0  0  0  0
    5.3194   -0.2006    0.0000 C   0  0  0  0  0  0  0  0  0  0  0  0
    4.7674   -0.8137    0.0000 C   0  0  0  0  0  0  0  0  0  0  0  0
    5.0223   -1.5983    0.0000 O   0  0  0  0  0  0  0  0  0  0  0  0
    3.9604   -0.6422    0.0000 N   0  0  0  0  0  0  0  0  0  0  0  0
    3.7054    0.1425    0.0000 C   0  0  0  0  0  0  0  0  0  0  0  0
    4.2575    0.7556    0.0000 C   0  0  0  0  0  0  0  0  0  0  0  0
    2.8804    0.1425    0.0000 C   0  0  0  0  0  0  0  0  0  0  0  0
    2.3284    0.7556    0.0000 N   0  0  0  0  0  0  0  0  0  0  0  0
    1.5214    0.5840    0.0000 C   0  0  0  0  0  0  0  0  0  0  0  0
    1.2665   -0.2006    0.0000 C   0  0  0  0  0  0  0  0  0  0  0  0
    1.8185   -0.8137    0.0000 C   0  0  0  0  0  0  0  0  0  0  0  0
    2.6255   -0.6422    0.0000 C   0  0  0  0  0  0  0  0  0  0  0  0
    3.2929   -1.1271    0.0000 C   0  0  0  0  0  0  0  0  0  0  0  0
    0.4595   -0.3721    0.0000 C   0  0  0  0  0  0  0  0  0  0  0  0
   -0.0925    0.2410    0.0000 C   0  0  0  0  0  0  0  0  0  0  0  0
   -0.8995    0.0694    0.0000 O   0  0  0  0  0  0  0  0  0  0  0  0
    0.1624    1.0256    0.0000 C   0  0  0  0  0  0  0  0  0  0  0  0
    0.9694    1.1971    0.0000 C   0  0  0  0  0  0  0  0  0  0  0  0
    6.1264   -0.3721    0.0000 C   0  0  0  0  0  0  0  0  0  0  0  0
    6.6784    0.2410    0.0000 O   0  0  0  0  0  0  0  0  0  0  0  0
    6.4235    1.0256    0.0000 C   0  0  0  0  0  0  0  0  0  0  0  0
    6.9755    1.6387    0.0000 O   0  0  0  0  0  0  0  0  0  0  0  0
    4.9168    1.6343    0.0000 C   0  0  0  0  0  0  0  0  0  0  0  0
    4.9456    2.4588    0.0000 C   0  0  0  0  0  0  0  0  0  0  0  0
  1  2  1  6  0  0  0
  1  3  1  0  0  0  0
  3  4  2  0  0  0  0
  4  5  1  0  0  0  0
  5  6  2  0  0  0  0
  5  7  1  0  0  0  0
  7  8  1  0  0  0  0
  8  9  2  0  0  0  0
  3  9  1  0  0  0  0
  8 10  1  0  0  0  0
 10 11  2  0  0  0  0
 11 12  1  0  0  0  0
 12 13  2  0  0  0  0
 13 14  1  0  0  0  0
 14 15  2  0  0  0  0
 10 15  1  0  0  0  0
 15 16  1  0  0  0  0
  7 16  1  0  0  0  0
 13 17  1  0  0  0  0
 17 18  2  0  0  0  0
 18 19  1  0  0  0  0
 18 20  1  0  0  0  0
 20 21  2  0  0  0  0
 12 21  1  0  0  0  0
  4 22  1  0  0  0  0
 22 23  1  0  0  0  0
 23 24  1  0  0  0  0
  1 24  1  0  0  0  0
 24 25  2  0  0  0  0
  1 26  1  1  0  0  0
 26 27  1  0  0  0  0
M  END
>  <Name>
10-Hydroxycamptothecin

>  <CAS>
19685-09-7

>  <Formula>
C20H16N2O5

>  <MolWt>
364.36 

>  <Bioactivity>
An alkaloid isolated from the stem wood of the Chinese tree, Camptotheca acuminata. This compound selectively inhibits the nuclear enzyme DNA TOPOISOMERASES, TYPE I. Several semisynthetic analogs of camptothecin have demonstrated antitumor activity. 

>  <Pathways>
DNA Damage/DNA Repair

>  <Target>
Topoisomerase inhibitor

>  <Receptor>
Topoisomerase I 

>  <Reference>
1. Teicher BA. Biochem Pharmacol. 2007 Oct 22;.

$$$$
7432-28-2
  Mrv1561503291623562D          

 31 33  0  0  0  0            999 V2000
    5.2074   -1.3803    0.0000 C   0  0  0  0  0  0  0  0  0  0  0  0
    5.4209   -0.5834    0.0000 C   0  0  0  0  0  0  0  0  0  0  0  0
    6.3051   -0.5390    0.0000 O   0  0  0  0  0  0  0  0  0  0  0  0
    7.0291   -1.0015    0.0000 C   0  0  0  0  0  0  0  0  0  0  0  0
    4.8376    0.0000    0.0000 C   0  0  0  0  0  0  0  0  0  0  0  0
    4.0407   -0.2135    0.0000 C   0  0  0  0  0  0  0  0  0  0  0  0
    3.8271   -1.0104    0.0000 C   0  0  0  0  0  0  0  0  0  0  0  0
    4.4105   -1.5938    0.0000 C   0  0  0  0  0  0  0  0  0  0  0  0
    4.4105   -2.4188    0.0000 C   0  0  0  0  0  0  0  0  0  0  0  0
    3.8271   -3.0021    0.0000 C   0  0  0  0  0  0  0  0  0  0  0  0
    4.5393   -3.5294    0.0000 C   0  0  0  0  0  0  0  0  0  0  0  0
    3.6907   -3.8717    0.0000 O   0  0  0  0  0  0  0  0  0  0  0  0
    3.0021   -3.0021    0.0000 C   0  0  0  0  0  0  0  0  0  0  0  0
    2.4188   -2.4188    0.0000 C   0  0  0  0  0  0  0  0  0  0  0  0
    2.4188   -1.5938    0.0000 C   0  0  0  0  0  0  0  0  0  0  0  0
    3.0021   -1.0104    0.0000 C   0  0  0  0  0  0  0  0  0  0  0  0
    2.7886   -0.2135    0.0000 C   0  0  0  0  0  0  0  0  0  0  0  0
    1.9917    0.0000    0.0000 C   0  0  0  0  0  0  0  0  0  0  0  0
    1.4551    0.7311    0.0000 O   0  0  0  0  0  0  0  0  0  0  0  0
    0.7069    1.1672    0.0000 C   0  0  0  0  0  0  0  0  0  0  0  0
    1.4084   -0.5834    0.0000 C   0  0  0  0  0  0  0  0  0  0  0  0
    1.6219   -1.3803    0.0000 C   0  0  0  0  0  0  0  0  0  0  0  0
    0.5245   -0.5606    0.0000 O   0  0  0  0  0  0  0  0  0  0  0  0
   -0.1953   -1.0247    0.0000 C   0  0  0  0  0  0  0  0  0  0  0  0
    3.0954    0.7767    0.0000 O   0  0  0  0  0  0  0  0  0  0  0  0
    2.7619    1.6117    0.0000 C   0  0  0  0  0  0  0  0  0  0  0  0
    2.5132   -3.7269    0.0000 C   0  0  0  0  0  0  0  0  0  0  0  0
    3.5270    0.4535    0.0000 O   0  0  0  0  0  0  0  0  0  0  0  0
    3.6964    1.3748    0.0000 C   0  0  0  0  0  0  0  0  0  0  0  0
    5.3294    0.7533    0.0000 O   0  0  0  0  0  0  0  0  0  0  0  0
    6.0781    1.1790    0.0000 C   0  0  0  0  0  0  0  0  0  0  0  0
  1  2  2  0  0  0  0
  2  3  1  0  0  0  0
  3  4  1  0  0  0  0
  2  5  1  0  0  0  0
  5  6  2  0  0  0  0
  6  7  1  0  0  0  0
  7  8  2  0  0  0  0
  1  8  1  0  0  0  0
  8  9  1  0  0  0  0
  9 10  1  0  0  0  0
 10 11  1  0  0  0  0
 10 12  1  0  0  0  0
 10 13  1  0  0  0  0
 13 14  1  0  0  0  0
 14 15  1  0  0  0  0
 15 16  2  0  0  0  0
  7 16  1  0  0  0  0
 16 17  1  0  0  0  0
 17 18  2  0  0  0  0
 18 19  1  0  0  0  0
 19 20  1  0  0  0  0
 18 21  1  0  0  0  0
 21 22  2  0  0  0  0
 15 22  1  0  0  0  0
 21 23  1  0  0  0  0
 23 24  1  0  0  0  0
 17 25  1  0  0  0  0
 25 26  1  0  0  0  0
 13 27  1  0  0  0  0
  6 28  1  0  0  0  0
 28 29  1  0  0  0  0
  5 30  1  0  0  0  0
 30 31  1  0  0  0  0
M  END
>  <Name>
Schisandrin

>  <CAS>
7432-28-2

>  <Formula>
C24H32O7

>  <MolWt>
432.51 

>  <Bioactivity>
Extracted from Schisandra chinensis (Turcz.) Baill.;Suitability:DMSO;Store the product in sealed,cool and dry condition

>  <Pathways>
Others

>  <Target>
Others

>  <Receptor>
Others

>  <Reference>
1. Guo CX, et al. Pharmazie. 2015 Jan;70(1):29-32.

$$$$
17388-39-5
  Mrv1561503291623562D          

 26 28  0  0  1  0            999 V2000
    0.0000   -1.6500    0.0000 C   0  0  2  0  0  0  0  0  0  0  0  0
    0.7145   -1.2375    0.0000 C   0  0  1  0  0  0  0  0  0  0  0  0
    0.7145   -0.4125    0.0000 C   0  0  0  0  0  0  0  0  0  0  0  0
   -0.0000    0.0000    0.0000 C   0  0  0  0  0  0  0  0  0  0  0  0
   -0.7145   -0.4125    0.0000 O   0  0  0  0  0  0  0  0  0  0  0  0
   -0.7145   -1.2375    0.0000 C   0  0  1  0  0  0  0  0  0  0  0  0
   -1.4289   -1.6500    0.0000 O   0  0  0  0  0  0  0  0  0  0  0  0
   -2.1434   -1.2375    0.0000 C   0  0  2  0  0  0  0  0  0  0  0  0
   -2.8579   -1.6500    0.0000 O   0  0  0  0  0  0  0  0  0  0  0  0
   -3.5724   -1.2375    0.0000 C   0  0  1  0  0  0  0  0  0  0  0  0
   -3.5724   -0.4125    0.0000 C   0  0  1  0  0  0  0  0  0  0  0  0
   -4.2868   -0.0000    0.0000 O   0  0  0  0  0  0  0  0  0  0  0  0
   -2.8579   -0.0000    0.0000 C   0  0  1  0  0  0  0  0  0  0  0  0
   -2.1434   -0.4125    0.0000 C   0  0  1  0  0  0  0  0  0  0  0  0
   -1.4289   -0.0000    0.0000 O   0  0  0  0  0  0  0  0  0  0  0  0
   -2.8579    0.8250    0.0000 O   0  0  0  0  0  0  0  0  0  0  0  0
   -4.2868   -1.6500    0.0000 C   0  0  0  0  0  0  0  0  0  0  0  0
   -5.0013   -1.2375    0.0000 O   0  0  0  0  0  0  0  0  0  0  0  0
    1.4289    0.0000    0.0000 C   0  0  0  0  0  0  0  0  0  0  0  0
    2.1434   -0.4125    0.0000 O   0  0  0  0  0  0  0  0  0  0  0  0
    2.1434   -1.2375    0.0000 C   0  0  0  0  0  0  0  0  0  0  0  0
    1.4289   -1.6500    0.0000 C   0  0  0  0  0  0  0  0  0  0  0  0
    1.4289    0.8250    0.0000 O   0  0  0  0  0  0  0  0  0  0  0  0
    0.7145   -2.0625    0.0000 O   0  0  0  0  0  0  0  0  0  0  0  0
    0.0000   -2.4750    0.0000 C   0  0  0  0  0  0  0  0  0  0  0  0
   -0.7145   -2.8875    0.0000 C   0  0  0  0  0  0  0  0  0  0  0  0
  1  2  1  0  0  0  0
  2  3  1  0  0  0  0
  3  4  2  0  0  0  0
  4  5  1  0  0  0  0
  5  6  1  0  0  0  0
  1  6  1  0  0  0  0
  6  7  1  6  0  0  0
  8  7  1  6  0  0  0
  8  9  1  0  0  0  0
  9 10  1  0  0  0  0
 10 11  1  0  0  0  0
 11 12  1  1  0  0  0
 11 13  1  0  0  0  0
 13 14  1  0  0  0  0
  8 14  1  0  0  0  0
 14 15  1  1  0  0  0
 13 16  1  6  0  0  0
 10 17  1  6  0  0  0
 17 18  1  0  0  0  0
  3 19  1  0  0  0  0
 19 20  1  0  0  0  0
 20 21  1  0  0  0  0
 21 22  1  0  0  0  0
  2 22  1  0  0  0  0
 19 23  2  0  0  0  0
  2 24  1  6  0  0  0
  1 25  1  1  0  0  0
 25 26  2  0  0  0  0
M  END
>  <Name>
Swertiamarin

>  <CAS>
17388-39-5

>  <Formula>
C16H22O10

>  <MolWt>
374.34 

>  <Bioactivity>
Extracted from Gentianaceae Swertia L. Swertia mussotii Franch;Suitability:Methanol,ethanol;Store the product in sealed,cool and dry condition

>  <Pathways>
Others

>  <Target>
Others

>  <Receptor>
Others

>  <Reference>
1. Saravanan S, et al. Eur J Pharm Sci. 2014 Jun 2;56:70-86. 

$$$$
66-97-7
  Mrv1561503291623562D          

 14 16  0  0  0  0            999 V2000
    0.6411   -2.7604    0.0000 C   0  0  0  0  0  0  0  0  0  0  0  0
    1.3556   -2.3479    0.0000 C   0  0  0  0  0  0  0  0  0  0  0  0
    1.3556   -1.5229    0.0000 C   0  0  0  0  0  0  0  0  0  0  0  0
    0.6411   -1.1104    0.0000 C   0  0  0  0  0  0  0  0  0  0  0  0
   -0.0734   -1.5229    0.0000 C   0  0  0  0  0  0  0  0  0  0  0  0
   -0.0734   -2.3479    0.0000 C   0  0  0  0  0  0  0  0  0  0  0  0
   -0.8580   -2.6029    0.0000 C   0  0  0  0  0  0  0  0  0  0  0  0
   -1.3429   -1.9354    0.0000 C   0  0  0  0  0  0  0  0  0  0  0  0
   -0.8580   -1.2680    0.0000 O   0  0  0  0  0  0  0  0  0  0  0  0
    2.0701   -1.1104    0.0000 O   0  0  0  0  0  0  0  0  0  0  0  0
    2.7845   -1.5229    0.0000 C   0  0  0  0  0  0  0  0  0  0  0  0
    3.4990   -1.1104    0.0000 O   0  0  0  0  0  0  0  0  0  0  0  0
    2.7845   -2.3479    0.0000 C   0  0  0  0  0  0  0  0  0  0  0  0
    2.0701   -2.7604    0.0000 C   0  0  0  0  0  0  0  0  0  0  0  0
  1  2  2  0  0  0  0
  2  3  1  0  0  0  0
  3  4  2  0  0  0  0
  4  5  1  0  0  0  0
  5  6  2  0  0  0  0
  1  6  1  0  0  0  0
  6  7  1  0  0  0  0
  7  8  2  0  0  0  0
  8  9  1  0  0  0  0
  5  9  1  0  0  0  0
  3 10  1  0  0  0  0
 10 11  1  0  0  0  0
 11 12  2  0  0  0  0
 11 13  1  0  0  0  0
 13 14  2  0  0  0  0
  2 14  1  0  0  0  0
M  END
>  <Name>
Psoralen

>  <CAS>
66-97-7

>  <Formula>
C11H6O3

>  <MolWt>
186.17 

>  <Bioactivity>
Psoralen is used as photochemical probe in studies of DNA mutation and repair mechanisms. Causes photosensitization in human.

>  <Pathways>
Others

>  <Target>
Others

>  <Receptor>
Others

>  <Reference>
1. Yang L, Sun X, Geng X. Pak J Pharm Sci. 2015 Mar;28(2 Suppl):667-70.

$$$$
507-70-0
  Mrv1561503291623562D          

 11 12  0  0  0  0            999 V2000
    1.1486    1.8405    0.0000 C   0  0  0  0  0  0  0  0  0  0  0  0
    1.0875    0.9834    0.0000 C   0  0  0  0  0  0  0  0  0  0  0  0
    1.3164    0.1644    0.0000 C   0  0  0  0  0  0  0  0  0  0  0  0
    1.1329   -0.6660    0.0000 C   0  0  0  0  0  0  0  0  0  0  0  0
    0.2955   -0.3065    0.0000 C   0  0  0  0  0  0  0  0  0  0  0  0
    0.3514    0.6633    0.0000 C   0  0  0  0  0  0  0  0  0  0  0  0
   -0.2613    1.3077    0.0000 O   0  0  0  0  0  0  0  0  0  0  0  0
    1.8357   -0.2340    0.0000 C   0  0  0  0  0  0  0  0  0  0  0  0
    1.8131    0.5907    0.0000 C   0  0  0  0  0  0  0  0  0  0  0  0
    0.4740    0.1656    0.0000 C   0  0  0  0  0  0  0  0  0  0  0  0
    0.6653   -0.6284    0.0000 C   0  0  0  0  0  0  0  0  0  0  0  0
  1  2  1  0  0  0  0
  2  3  1  0  0  0  0
  3  4  1  0  0  0  0
  4  5  1  0  0  0  0
  5  6  1  0  0  0  0
  2  6  1  0  0  0  0
  6  7  1  0  0  0  0
  4  8  1  0  0  0  0
  8  9  1  0  0  0  0
  2  9  1  0  0  0  0
  3 10  1  0  0  0  0
  3 11  1  0  0  0  0
M  END
>  <Name>
Borneol

>  <CAS>
507-70-0

>  <Formula>
C10H18O

>  <MolWt>
154.24 

>  <Bioactivity>
Extracted from Cinnamomum cassia;Suitability:Ethanol,ether,petroleum ether,benzene,toluene,acetone,decalin,tetralin;Store the product in sealed,cool and dry condition

>  <Pathways>
Metabolism

>  <Target>
CYP inhibitor

>  <Receptor>
CYP2D

>  <Reference>
1. Yin Q, et al. Int J Mol Sci. 2014 Nov 6;15(11):20365-81. 

$$$$
T1606
  Mrv1561503291623562D          

 20 22  0  0  0  0            999 V2000
    1.4289   -1.6500    0.0000 C   0  0  0  0  0  0  0  0  0  0  0  0
    0.7145   -1.2375    0.0000 C   0  0  0  0  0  0  0  0  0  0  0  0
    0.7145   -0.4125    0.0000 N   0  0  0  0  0  0  0  0  0  0  0  0
    1.4289   -0.0000    0.0000 C   0  0  0  0  0  0  0  0  0  0  0  0
    2.1434   -0.4125    0.0000 C   0  0  0  0  0  0  0  0  0  0  0  0
    2.8579   -0.0000    0.0000 C   0  0  0  0  0  0  0  0  0  0  0  0
    3.5724   -0.4125    0.0000 C   0  0  0  0  0  0  0  0  0  0  0  0
    3.5724   -1.2375    0.0000 C   0  0  0  0  0  0  0  0  0  0  0  0
    2.8579   -1.6500    0.0000 C   0  0  0  0  0  0  0  0  0  0  0  0
    2.1434   -1.2375    0.0000 C   0  0  0  0  0  0  0  0  0  0  0  0
    2.8579   -2.4750    0.0000 S   0  0  0  0  0  0  0  0  0  0  0  0
    2.8579   -3.3000    0.0000 N   0  0  0  0  0  0  0  0  0  0  0  0
    3.6012   -3.6580    0.0000 C   0  0  0  0  0  0  0  0  0  0  0  0
    3.7848   -4.4623    0.0000 C   0  0  0  0  0  0  0  0  0  0  0  0
    3.2704   -5.1073    0.0000 C   0  0  0  0  0  0  0  0  0  0  0  0
    2.4454   -5.1073    0.0000 N   0  0  0  0  0  0  0  0  0  0  0  0
    1.9310   -4.4623    0.0000 C   0  0  0  0  0  0  0  0  0  0  0  0
    2.1146   -3.6580    0.0000 C   0  0  0  0  0  0  0  0  0  0  0  0
    2.0329   -2.4750    0.0000 O   0  0  0  0  0  0  0  0  0  0  0  0
    3.6829   -2.4750    0.0000 O   0  0  0  0  0  0  0  0  0  0  0  0
  1  2  2  0  0  0  0
  2  3  1  0  0  0  0
  3  4  2  0  0  0  0
  4  5  1  0  0  0  0
  5  6  2  0  0  0  0
  6  7  1  0  0  0  0
  7  8  2  0  0  0  0
  8  9  1  0  0  0  0
  9 10  2  0  0  0  0
  1 10  1  0  0  0  0
  5 10  1  0  0  0  0
  9 11  1  0  0  0  0
 11 12  1  0  0  0  0
 12 13  1  0  0  0  0
 13 14  1  0  0  0  0
 14 15  1  0  0  0  0
 15 16  1  0  0  0  0
 16 17  1  0  0  0  0
 17 18  1  0  0  0  0
 12 18  1  0  0  0  0
 11 19  2  0  0  0  0
 11 20  2  0  0  0  0
M  END
>  <Name>
Fasudil

>  <CAS>
103745-39-7

>  <Formula>
C14H17N3O2S

>  <MolWt>
291.37 

>  <Bioactivity>
Fasudil hydrochloride (INN) is a potent Rho-kinase inhibitor and vasodilator. Since it was discovered, it has been used for the treatment of cerebral vasospasm, which is often due to subarachnoid hemorrhage, as well as to improve the cognitive decline seen in stroke victims. It has been found to be effective for the treatment of pulmonary hypertension.

>  <Pathways>
Tyrosine Kinase/Adaptors

>  <Target>
ROCK-II, PKA, PKG, PKC, MLCK

>  <Receptor>
ROCK-II, PKA, PKG, PKC, MLCK

>  <Reference>
1. Hu H, et al. Exp Mol Pathol. 2015 Apr;98(2):277-85.

$$$$
T0049
  Mrv1561503291623562D          

 33 35  0  0  1  0            999 V2000
    0.0698   -1.3557    0.0000 C   0  0  0  0  0  0  0  0  0  0  0  0
   -0.6221   -1.8051    0.0000 S   0  0  0  0  0  0  0  0  0  0  0  0
   -1.2633   -1.2859    0.0000 C   0  0  0  0  0  0  0  0  0  0  0  0
   -0.9676   -0.5157    0.0000 C   0  0  0  0  0  0  0  0  0  0  0  0
   -0.1438   -0.5588    0.0000 N   0  0  0  0  0  0  0  0  0  0  0  0
    0.6531   -0.3453    0.0000 C   0  0  0  0  0  0  0  0  0  0  0  0
    1.0656    0.3692    0.0000 O   0  0  0  0  0  0  0  0  0  0  0  0
    0.8666   -1.1422    0.0000 C   0  0  0  0  0  0  0  0  0  0  0  0
    1.5811   -1.5547    0.0000 N   0  0  0  0  0  0  0  0  0  0  0  0
    2.2956   -1.1422    0.0000 C   0  0  0  0  0  0  0  0  0  0  0  0
    2.2956   -0.3172    0.0000 O   0  0  0  0  0  0  0  0  0  0  0  0
    3.0101   -1.5547    0.0000 C   0  0  0  0  0  0  0  0  0  0  0  0
    3.7245   -1.1422    0.0000 N   0  0  0  0  0  0  0  0  0  0  0  0
    4.4390   -1.5547    0.0000 C   0  0  0  0  0  0  0  0  0  0  0  0
    4.4390   -2.3797    0.0000 O   0  0  0  0  0  0  0  0  0  0  0  0
    5.1535   -1.1422    0.0000 N   0  0  0  0  0  0  0  0  0  0  0  0
    5.2397   -0.3217    0.0000 C   0  0  0  0  0  0  0  0  0  0  0  0
    4.6266    0.2303    0.0000 O   0  0  0  0  0  0  0  0  0  0  0  0
    6.0467   -0.1502    0.0000 N   0  0  0  0  0  0  0  0  0  0  0  0
    6.4592   -0.8647    0.0000 C   0  0  0  0  0  0  0  0  0  0  0  0
    5.9071   -1.4778    0.0000 C   0  0  0  0  0  0  0  0  0  0  0  0
    3.0101   -2.3797    0.0000 C   0  0  0  0  0  0  0  0  0  0  0  0
    3.7245   -2.7922    0.0000 C   0  0  0  0  0  0  0  0  0  0  0  0
    3.7245   -3.6172    0.0000 C   0  0  0  0  0  0  0  0  0  0  0  0
    3.0101   -4.0297    0.0000 C   0  0  0  0  0  0  0  0  0  0  0  0
    2.2956   -3.6172    0.0000 C   0  0  0  0  0  0  0  0  0  0  0  0
    2.2956   -2.7922    0.0000 C   0  0  0  0  0  0  0  0  0  0  0  0
   -1.4170    0.1762    0.0000 C   0  0  0  0  0  0  0  0  0  0  0  0
   -2.2408    0.1331    0.0000 O   0  5  0  0  0  0  0  0  0  0  0  0
   -1.0424    0.9113    0.0000 O   0  0  0  0  0  0  0  0  0  0  0  0
   -1.8527   -1.8631    0.0000 C   0  0  0  0  0  0  0  0  0  0  0  0
   -2.0624   -1.0807    0.0000 C   0  0  0  0  0  0  0  0  0  0  0  0
   -3.0647    0.0899    0.0000 Na  0  3  0  0  0  0  0  0  0  0  0  0
  1  2  1  0  0  0  0
  2  3  1  0  0  0  0
  3  4  1  0  0  0  0
  4  5  1  0  0  0  0
  1  5  1  0  0  0  0
  5  6  1  0  0  0  0
  6  7  2  0  0  0  0
  6  8  1  0  0  0  0
  1  8  1  0  0  0  0
  8  9  1  0  0  0  0
  9 10  1  0  0  0  0
 10 11  2  0  0  0  0
 10 12  1  0  0  0  0
 12 13  1  0  0  0  0
 13 14  1  0  0  0  0
 14 15  2  0  0  0  0
 14 16  1  0  0  0  0
 16 17  1  0  0  0  0
 17 18  2  0  0  0  0
 17 19  1  0  0  0  0
 19 20  1  0  0  0  0
 20 21  1  0  0  0  0
 16 21  1  0  0  0  0
 12 22  1  0  0  0  0
 22 23  2  0  0  0  0
 23 24  1  0  0  0  0
 24 25  2  0  0  0  0
 25 26  1  0  0  0  0
 26 27  2  0  0  0  0
 22 27  1  0  0  0  0
  4 28  1  0  0  0  0
 28 29  1  0  0  0  0
 28 30  2  0  0  0  0
  3 31  1  0  0  0  0
  3 32  1  0  0  0  0
M  CHG  2  29  -1  33   1
M  END
>  <Name>
Azlocillin sodium

>  <CAS>
37091-65-9

>  <Formula>
C20H22N5NaO6S

>  <MolWt>
483.47 

>  <Bioactivity>
Azlocillin is an acylampicillin with a broad spectrum against bacteria

>  <Pathways>
Microbiology & Virology

>  <Target>
Antibacterial

>  <Receptor>
PBPs

>  <Reference>
1. Stewart D, et al. Antimicrob Agents Chemother, 1977, 11(5), 865-870.

$$$$
79-81-2
  Mrv1561503291623562D          

 38 38  0  0  0  0            999 V2000
    3.5724   -6.1875    0.0000 C   0  0  0  0  0  0  0  0  0  0  0  0
    2.8579   -5.7750    0.0000 C   0  0  0  0  0  0  0  0  0  0  0  0
    2.1434   -6.1875    0.0000 C   0  0  0  0  0  0  0  0  0  0  0  0
    1.4289   -5.7750    0.0000 C   0  0  0  0  0  0  0  0  0  0  0  0
    0.7145   -6.1875    0.0000 C   0  0  0  0  0  0  0  0  0  0  0  0
   -0.0000   -5.7750    0.0000 C   0  0  0  0  0  0  0  0  0  0  0  0
   -0.7145   -6.1875    0.0000 C   0  0  0  0  0  0  0  0  0  0  0  0
   -1.4289   -5.7750    0.0000 C   0  0  0  0  0  0  0  0  0  0  0  0
   -2.1434   -6.1875    0.0000 C   0  0  0  0  0  0  0  0  0  0  0  0
   -2.8579   -5.7750    0.0000 C   0  0  0  0  0  0  0  0  0  0  0  0
   -3.5724   -6.1875    0.0000 C   0  0  0  0  0  0  0  0  0  0  0  0
   -4.2868   -5.7750    0.0000 C   0  0  0  0  0  0  0  0  0  0  0  0
   -4.2868   -4.9500    0.0000 C   0  0  0  0  0  0  0  0  0  0  0  0
   -3.5724   -4.5375    0.0000 C   0  0  0  0  0  0  0  0  0  0  0  0
   -2.8579   -4.9500    0.0000 C   0  0  0  0  0  0  0  0  0  0  0  0
   -2.4207   -4.2504    0.0000 C   0  0  0  0  0  0  0  0  0  0  0  0
   -2.0334   -4.9212    0.0000 C   0  0  0  0  0  0  0  0  0  0  0  0
   -3.5724   -7.0125    0.0000 C   0  0  0  0  0  0  0  0  0  0  0  0
   -0.7145   -7.0125    0.0000 C   0  0  0  0  0  0  0  0  0  0  0  0
    2.1434   -7.0125    0.0000 C   0  0  0  0  0  0  0  0  0  0  0  0
    4.2868   -5.7750    0.0000 O   0  0  0  0  0  0  0  0  0  0  0  0
    5.0013   -6.1875    0.0000 C   0  0  0  0  0  0  0  0  0  0  0  0
    5.7158   -5.7750    0.0000 C   0  0  0  0  0  0  0  0  0  0  0  0
    6.4302   -6.1875    0.0000 C   0  0  0  0  0  0  0  0  0  0  0  0
    7.1447   -5.7750    0.0000 C   0  0  0  0  0  0  0  0  0  0  0  0
    7.8592   -6.1875    0.0000 C   0  0  0  0  0  0  0  0  0  0  0  0
    8.5737   -5.7750    0.0000 C   0  0  0  0  0  0  0  0  0  0  0  0
    9.2881   -6.1875    0.0000 C   0  0  0  0  0  0  0  0  0  0  0  0
   10.0026   -5.7750    0.0000 C   0  0  0  0  0  0  0  0  0  0  0  0
   10.7171   -6.1875    0.0000 C   0  0  0  0  0  0  0  0  0  0  0  0
   11.4315   -5.7750    0.0000 C   0  0  0  0  0  0  0  0  0  0  0  0
   12.1460   -6.1875    0.0000 C   0  0  0  0  0  0  0  0  0  0  0  0
   12.8605   -5.7750    0.0000 C   0  0  0  0  0  0  0  0  0  0  0  0
   13.5749   -6.1875    0.0000 C   0  0  0  0  0  0  0  0  0  0  0  0
   14.2894   -5.7750    0.0000 C   0  0  0  0  0  0  0  0  0  0  0  0
   15.0039   -6.1875    0.0000 C   0  0  0  0  0  0  0  0  0  0  0  0
   15.7184   -5.7750    0.0000 C   0  0  0  0  0  0  0  0  0  0  0  0
    5.0013   -7.0125    0.0000 O   0  0  0  0  0  0  0  0  0  0  0  0
  1  2  1  0  0  0  0
  2  3  2  0  0  0  0
  3  4  1  0  0  0  0
  4  5  2  0  0  0  0
  5  6  1  0  0  0  0
  6  7  2  0  0  0  0
  7  8  1  0  0  0  0
  8  9  2  0  0  0  0
  9 10  1  0  0  0  0
 10 11  2  0  0  0  0
 11 12  1  0  0  0  0
 12 13  1  0  0  0  0
 13 14  1  0  0  0  0
 14 15  1  0  0  0  0
 10 15  1  0  0  0  0
 15 16  1  0  0  0  0
 15 17  1  0  0  0  0
 11 18  1  0  0  0  0
  7 19  1  0  0  0  0
  3 20  1  0  0  0  0
  1 21  1  0  0  0  0
 21 22  1  0  0  0  0
 22 23  1  0  0  0  0
 23 24  1  0  0  0  0
 24 25  1  0  0  0  0
 25 26  1  0  0  0  0
 26 27  1  0  0  0  0
 27 28  1  0  0  0  0
 28 29  1  0  0  0  0
 29 30  1  0  0  0  0
 30 31  1  0  0  0  0
 31 32  1  0  0  0  0
 32 33  1  0  0  0  0
 33 34  1  0  0  0  0
 34 35  1  0  0  0  0
 35 36  1  0  0  0  0
 36 37  1  0  0  0  0
 22 38  2  0  0  0  0
M  END
>  <Name>
Retinol palmitate

>  <CAS>
79-81-2

>  <Formula>
C36H60O2

>  <MolWt>
524.86 

>  <Bioactivity>
Vitamin A palmitate is a more stable, synthetic version of the essential nutrient vitamin A joined to palmitic acid.

>  <Pathways>
Others

>  <Target>
Others

>  <Receptor>
Others

>  <Reference>
1. Athanassiades TJ, et al. J Natl Cancer Inst, 1981, 67(5), 1153-1156.

$$$$
90729-43-4
  Mrv1561503291623562D          

 35 38  0  0  0  0            999 V2000
    3.5724   -5.3625    0.0000 C   0  0  0  0  0  0  0  0  0  0  0  0
    4.2868   -4.9500    0.0000 C   0  0  0  0  0  0  0  0  0  0  0  0
    4.2868   -4.1250    0.0000 C   0  0  0  0  0  0  0  0  0  0  0  0
    3.5724   -3.7125    0.0000 C   0  0  0  0  0  0  0  0  0  0  0  0
    2.8579   -4.1250    0.0000 C   0  0  0  0  0  0  0  0  0  0  0  0
    2.1434   -3.7125    0.0000 C   0  0  0  0  0  0  0  0  0  0  0  0
    2.1434   -2.8875    0.0000 C   0  0  0  0  0  0  0  0  0  0  0  0
    2.8579   -2.4750    0.0000 C   0  0  0  0  0  0  0  0  0  0  0  0
    3.5724   -2.8875    0.0000 C   0  0  0  0  0  0  0  0  0  0  0  0
    5.0013   -3.7125    0.0000 O   0  0  0  0  0  0  0  0  0  0  0  0
    5.7158   -4.1250    0.0000 C   0  0  0  0  0  0  0  0  0  0  0  0
    6.4302   -3.7125    0.0000 C   0  0  0  0  0  0  0  0  0  0  0  0
    7.1447   -4.1250    0.0000 C   0  0  0  0  0  0  0  0  0  0  0  0
    7.1447   -4.9500    0.0000 N   0  0  0  0  0  0  0  0  0  0  0  0
    7.8592   -5.3625    0.0000 C   0  0  0  0  0  0  0  0  0  0  0  0
    8.5737   -4.9500    0.0000 C   0  0  0  0  0  0  0  0  0  0  0  0
    9.2881   -5.3625    0.0000 C   0  0  0  0  0  0  0  0  0  0  0  0
   10.0026   -4.9500    0.0000 C   0  0  0  0  0  0  0  0  0  0  0  0
   10.7171   -5.3625    0.0000 C   0  0  0  0  0  0  0  0  0  0  0  0
   11.4315   -4.9500    0.0000 C   0  0  0  0  0  0  0  0  0  0  0  0
   12.1460   -5.3625    0.0000 C   0  0  0  0  0  0  0  0  0  0  0  0
   12.1460   -6.1875    0.0000 C   0  0  0  0  0  0  0  0  0  0  0  0
   11.4315   -6.6000    0.0000 C   0  0  0  0  0  0  0  0  0  0  0  0
   10.7171   -6.1875    0.0000 C   0  0  0  0  0  0  0  0  0  0  0  0
   12.8605   -6.6000    0.0000 C   0  0  0  0  0  0  0  0  0  0  0  0
   13.5749   -7.0125    0.0000 C   0  0  0  0  0  0  0  0  0  0  0  0
   12.4480   -7.3145    0.0000 C   0  0  0  0  0  0  0  0  0  0  0  0
   13.2730   -5.8855    0.0000 C   0  0  0  0  0  0  0  0  0  0  0  0
   10.0026   -4.1250    0.0000 O   0  0  0  0  0  0  0  0  0  0  0  0
    6.4302   -5.3625    0.0000 C   0  0  0  0  0  0  0  0  0  0  0  0
    5.7158   -4.9500    0.0000 C   0  0  0  0  0  0  0  0  0  0  0  0
    5.0013   -5.3625    0.0000 C   0  0  0  0  0  0  0  0  0  0  0  0
    5.0013   -6.1875    0.0000 C   0  0  0  0  0  0  0  0  0  0  0  0
    4.2868   -6.6000    0.0000 C   0  0  0  0  0  0  0  0  0  0  0  0
    3.5724   -6.1875    0.0000 C   0  0  0  0  0  0  0  0  0  0  0  0
  1  2  2  0  0  0  0
  2  3  1  0  0  0  0
  3  4  1  0  0  0  0
  4  5  2  0  0  0  0
  5  6  1  0  0  0  0
  6  7  2  0  0  0  0
  7  8  1  0  0  0  0
  8  9  2  0  0  0  0
  4  9  1  0  0  0  0
  3 10  1  0  0  0  0
 10 11  1  0  0  0  0
 11 12  1  0  0  0  0
 12 13  1  0  0  0  0
 13 14  1  0  0  0  0
 14 15  1  0  0  0  0
 15 16  1  0  0  0  0
 16 17  1  0  0  0  0
 17 18  1  0  0  0  0
 18 19  1  0  0  0  0
 19 20  2  0  0  0  0
 20 21  1  0  0  0  0
 21 22  2  0  0  0  0
 22 23  1  0  0  0  0
 23 24  2  0  0  0  0
 19 24  1  0  0  0  0
 22 25  1  0  0  0  0
 25 26  1  0  0  0  0
 25 27  1  0  0  0  0
 25 28  1  0  0  0  0
 18 29  2  0  0  0  0
 14 30  1  0  0  0  0
 30 31  1  0  0  0  0
 11 31  1  0  0  0  0
  2 32  1  0  0  0  0
 32 33  2  0  0  0  0
 33 34  1  0  0  0  0
 34 35  2  0  0  0  0
  1 35  1  0  0  0  0
M  END
>  <Name>
Ebastine

>  <CAS>
90729-43-4

>  <Formula>
C32H39NO2

>  <MolWt>
469.66 

>  <Bioactivity>
Ebastine is a potent H1-histamine receptor antagonist, used for allergic disorders.

>  <Pathways>
Neuroscience

>  <Target>
Histamine Receptor antagonist

>  <Receptor>
Histamine H1 receptor

>  <Reference>
1. Ko CM, et al. J Pharmacol Exp Ther, 1997, 281(1), 233-244.

$$$$
163521-12-8
  Mrv1561503291623562D          

 33 37  0  0  0  0            999 V2000
    3.4990   -0.5396    0.0000 C   0  0  0  0  0  0  0  0  0  0  0  0
    2.7845   -0.1271    0.0000 C   0  0  0  0  0  0  0  0  0  0  0  0
    2.7845    0.6979    0.0000 N   0  0  0  0  0  0  0  0  0  0  0  0
    3.4990    1.1104    0.0000 C   0  0  0  0  0  0  0  0  0  0  0  0
    4.2135    0.6979    0.0000 C   0  0  0  0  0  0  0  0  0  0  0  0
    4.2135   -0.1271    0.0000 N   0  0  0  0  0  0  0  0  0  0  0  0
    4.9279   -0.5396    0.0000 C   0  0  0  0  0  0  0  0  0  0  0  0
    5.6424   -0.1271    0.0000 C   0  0  0  0  0  0  0  0  0  0  0  0
    6.3569   -0.5396    0.0000 C   0  0  0  0  0  0  0  0  0  0  0  0
    7.0714   -0.1271    0.0000 C   0  0  0  0  0  0  0  0  0  0  0  0
    7.7858   -0.5396    0.0000 C   0  0  0  0  0  0  0  0  0  0  0  0
    7.8721   -1.3600    0.0000 C   0  0  0  0  0  0  0  0  0  0  0  0
    8.6790   -1.5316    0.0000 N   0  0  0  0  0  0  0  0  0  0  0  0
    9.0915   -0.8171    0.0000 C   0  0  0  0  0  0  0  0  0  0  0  0
    8.5395   -0.2040    0.0000 C   0  0  0  0  0  0  0  0  0  0  0  0
    8.7944    0.5806    0.0000 C   0  0  0  0  0  0  0  0  0  0  0  0
    9.6014    0.7521    0.0000 C   0  0  0  0  0  0  0  0  0  0  0  0
   10.1534    0.1391    0.0000 C   0  0  0  0  0  0  0  0  0  0  0  0
    9.8985   -0.6456    0.0000 C   0  0  0  0  0  0  0  0  0  0  0  0
    9.8563    1.5368    0.0000 C   0  0  0  0  0  0  0  0  0  0  0  0
   10.1113    2.3214    0.0000 N   0  0  0  0  0  0  0  0  0  0  0  0
    2.0701    1.1104    0.0000 C   0  0  0  0  0  0  0  0  0  0  0  0
    1.3556    0.6979    0.0000 C   0  0  0  0  0  0  0  0  0  0  0  0
    0.6411    1.1104    0.0000 C   0  0  0  0  0  0  0  0  0  0  0  0
    0.6411    1.9354    0.0000 C   0  0  0  0  0  0  0  0  0  0  0  0
    1.3556    2.3479    0.0000 C   0  0  0  0  0  0  0  0  0  0  0  0
    2.0701    1.9354    0.0000 C   0  0  0  0  0  0  0  0  0  0  0  0
   -0.1435    2.1904    0.0000 O   0  0  0  0  0  0  0  0  0  0  0  0
   -0.6284    1.5229    0.0000 C   0  0  0  0  0  0  0  0  0  0  0  0
   -0.1435    0.8555    0.0000 C   0  0  0  0  0  0  0  0  0  0  0  0
   -1.4534    1.5229    0.0000 C   0  0  0  0  0  0  0  0  0  0  0  0
   -1.8659    2.2374    0.0000 O   0  0  0  0  0  0  0  0  0  0  0  0
   -1.8659    0.8085    0.0000 N   0  0  0  0  0  0  0  0  0  0  0  0
  1  2  1  0  0  0  0
  2  3  1  0  0  0  0
  3  4  1  0  0  0  0
  4  5  1  0  0  0  0
  5  6  1  0  0  0  0
  1  6  1  0  0  0  0
  6  7  1  0  0  0  0
  7  8  1  0  0  0  0
  8  9  1  0  0  0  0
  9 10  1  0  0  0  0
 10 11  1  0  0  0  0
 11 12  2  0  0  0  0
 12 13  1  0  0  0  0
 13 14  1  0  0  0  0
 14 15  2  0  0  0  0
 11 15  1  0  0  0  0
 15 16  1  0  0  0  0
 16 17  2  0  0  0  0
 17 18  1  0  0  0  0
 18 19  2  0  0  0  0
 14 19  1  0  0  0  0
 17 20  1  0  0  0  0
 20 21  3  0  0  0  0
  3 22  1  0  0  0  0
 22 23  2  0  0  0  0
 23 24  1  0  0  0  0
 24 25  2  0  0  0  0
 25 26  1  0  0  0  0
 26 27  2  0  0  0  0
 22 27  1  0  0  0  0
 25 28  1  0  0  0  0
 28 29  1  0  0  0  0
 29 30  2  0  0  0  0
 24 30  1  0  0  0  0
 29 31  1  0  0  0  0
 31 32  2  0  0  0  0
 31 33  1  0  0  0  0
M  END
>  <Name>
Vilazodone

>  <CAS>
163521-12-8

>  <Formula>
C26H27N5O2.HCl

>  <MolWt>
477.99 

>  <Bioactivity>
Vilazodone is a novel compound with combined high affinity and selectivity for the 5-hydroxytryptamine (5-HT) transporter and 5-HT(1A) receptors. It has been shown to be equally efficacious as other antidepressants with similar gastrointestinal side effects and possibly with reduced sexual side effects and weight gain. Vilazodone is an antidepressant agent that can used as an alternative for patients who cannot tolerate therapy with other antidepressant classes such as selective serotonin reuptake inhibitors or serotonin norepinephrine reuptake inhibitors. Treatment should be titrated towards the target dose, which is 40mg per day. 

>  <Pathways>
Neuroscience

>  <Target>
5-HT Receptor antagonist

>  <Receptor>
5-HT receptor ;Sodium-dependent serotonin transporter

>  <Reference>
1. Page ME, et al. J Pharmacol Exp Ther. 2002 Sep;302(3):1220-7. 

$$$$
987-78-0
  Mrv1561503291623562D          

 31 32  0  0  1  0            999 V2000
    0.7145   -1.2375    0.0000 C   0  0  2  0  0  0  0  0  0  0  0  0
    0.7145   -0.4125    0.0000 N   0  0  0  0  0  0  0  0  0  0  0  0
   -0.0000   -0.0000    0.0000 C   0  0  0  0  0  0  0  0  0  0  0  0
   -0.0000    0.8250    0.0000 N   0  0  0  0  0  0  0  0  0  0  0  0
    0.7145    1.2375    0.0000 C   0  0  0  0  0  0  0  0  0  0  0  0
    0.7145    2.0625    0.0000 N   0  0  0  0  0  0  0  0  0  0  0  0
    1.4289    0.8250    0.0000 C   0  0  0  0  0  0  0  0  0  0  0  0
    1.4289   -0.0000    0.0000 C   0  0  0  0  0  0  0  0  0  0  0  0
   -0.7145   -0.4125    0.0000 O   0  0  0  0  0  0  0  0  0  0  0  0
    1.3819   -1.7224    0.0000 O   0  0  0  0  0  0  0  0  0  0  0  0
    1.1270   -2.5070    0.0000 C   0  0  2  0  0  0  0  0  0  0  0  0
    1.6119   -3.1745    0.0000 C   0  0  0  0  0  0  0  0  0  0  0  0
    1.2763   -3.9282    0.0000 O   0  0  0  0  0  0  0  0  0  0  0  0
    1.7613   -4.5956    0.0000 P   0  0  0  0  0  0  0  0  0  0  0  0
    2.2462   -5.2630    0.0000 O   0  0  0  0  0  0  0  0  0  0  0  0
    1.9106   -6.0167    0.0000 P   0  0  0  0  0  0  0  0  0  0  0  0
    1.5751   -6.7704    0.0000 O   0  0  0  0  0  0  0  0  0  0  0  0
    2.0600   -7.4378    0.0000 C   0  0  0  0  0  0  0  0  0  0  0  0
    1.7244   -8.1915    0.0000 C   0  0  0  0  0  0  0  0  0  0  0  0
    2.2094   -8.8589    0.0000 N   0  3  0  0  0  0  0  0  0  0  0  0
    2.6943   -9.5264    0.0000 C   0  0  0  0  0  0  0  0  0  0  0  0
    1.5419   -9.3439    0.0000 C   0  0  0  0  0  0  0  0  0  0  0  0
    2.8768   -8.3740    0.0000 C   0  0  0  0  0  0  0  0  0  0  0  0
    1.1569   -5.6812    0.0000 O   0  0  0  0  0  0  0  0  0  0  0  0
    2.6643   -6.3523    0.0000 O   0  5  0  0  0  0  0  0  0  0  0  0
    1.0938   -5.0805    0.0000 O   0  0  0  0  0  0  0  0  0  0  0  0
    2.4287   -4.1107    0.0000 O   0  0  0  0  0  0  0  0  0  0  0  0
    0.3020   -2.5070    0.0000 C   0  0  2  0  0  0  0  0  0  0  0  0
    0.0470   -1.7224    0.0000 C   0  0  1  0  0  0  0  0  0  0  0  0
   -0.7376   -1.4675    0.0000 O   0  0  0  0  0  0  0  0  0  0  0  0
   -0.1830   -3.1745    0.0000 O   0  0  0  0  0  0  0  0  0  0  0  0
  1  2  1  6  0  0  0
  2  3  1  0  0  0  0
  3  4  1  0  0  0  0
  4  5  2  0  0  0  0
  5  6  1  0  0  0  0
  5  7  1  0  0  0  0
  7  8  2  0  0  0  0
  2  8  1  0  0  0  0
  3  9  2  0  0  0  0
  1 10  1  0  0  0  0
 10 11  1  0  0  0  0
 11 12  1  6  0  0  0
 12 13  1  0  0  0  0
 13 14  1  0  0  0  0
 14 15  1  0  0  0  0
 15 16  1  0  0  0  0
 16 17  1  0  0  0  0
 17 18  1  0  0  0  0
 18 19  1  0  0  0  0
 19 20  1  0  0  0  0
 20 21  1  0  0  0  0
 20 22  1  0  0  0  0
 20 23  1  0  0  0  0
 16 24  2  0  0  0  0
 16 25  1  0  0  0  0
 14 26  1  0  0  0  0
 14 27  2  0  0  0  0
 11 28  1  0  0  0  0
 28 29  1  0  0  0  0
  1 29  1  0  0  0  0
 29 30  1  1  0  0  0
 28 31  1  1  0  0  0
M  CHG  2  20   1  25  -1
M  END
>  <Name>
Citicoline

>  <CAS>
987-78-0

>  <Formula>
C14H26N4O11P2

>  <MolWt>
488.32 

>  <Bioactivity>
Donor of choline in biosynthesis of choline-containing phosphoglycerides.

>  <Pathways>
Neuroscience

>  <Target>
Dopamine Receptor

>  <Receptor>
Dopamine receptor

>  <Reference>
1. Giménez R, et al. Br J Pharmacol. 1991 Nov;104(3):575-8.

$$$$
T1033
  Mrv1561503291623562D          

 48 51  0  0  1  0            999 V2000
   -2.1262    1.0163    0.0000 C   0  0  0  0  0  0  0  0  0  0  0  0
   -1.3725    1.3519    0.0000 O   0  0  0  0  0  0  0  0  0  0  0  0
   -0.8205    0.7388    0.0000 C   0  0  0  0  0  0  0  0  0  0  0  0
    0.0000    0.8250    0.0000 C   0  0  0  0  0  0  0  0  0  0  0  0
    0.7846    1.0799    0.0000 O   0  0  0  0  0  0  0  0  0  0  0  0
    1.2695    0.4125    0.0000 C   0  0  0  0  0  0  0  0  0  0  0  0
    1.6820    1.1270    0.0000 O   0  0  0  0  0  0  0  0  0  0  0  0
    2.5070    1.1270    0.0000 C   0  0  0  0  0  0  0  0  0  0  0  0
    2.9195    0.4125    0.0000 C   0  0  0  0  0  0  0  0  0  0  0  0
    2.5070   -0.3020    0.0000 C   0  0  0  0  0  0  0  0  0  0  0  0
    2.9195   -1.0164    0.0000 O   0  0  0  0  0  0  0  0  0  0  0  0
    1.6820   -0.3020    0.0000 C   0  0  0  0  0  0  0  0  0  0  0  0
    3.7445    0.4125    0.0000 C   0  0  0  0  0  0  0  0  0  0  0  0
    2.9195    1.8414    0.0000 C   0  0  0  0  0  0  0  0  0  0  0  0
    3.7445    1.8414    0.0000 C   0  0  0  0  0  0  0  0  0  0  0  0
    4.1570    1.1270    0.0000 O   0  0  0  0  0  0  0  0  0  0  0  0
    4.9820    1.1270    0.0000 C   0  0  0  0  0  0  0  0  0  0  0  0
    4.1570    2.5559    0.0000 C   0  0  0  0  0  0  0  0  0  0  0  0
    3.7445    3.2704    0.0000 C   0  0  0  0  0  0  0  0  0  0  0  0
    4.9820    2.5559    0.0000 C   0  0  0  0  0  0  0  0  0  0  0  0
    5.3945    3.2704    0.0000 O   0  5  0  0  0  0  0  0  0  0  0  0
    5.3945    1.8414    0.0000 O   0  0  0  0  0  0  0  0  0  0  0  0
    2.5070    2.5559    0.0000 C   0  0  0  0  0  0  0  0  0  0  0  0
    0.7846   -0.2549    0.0000 C   0  0  0  0  0  0  0  0  0  0  0  0
   -0.0000   -0.0000    0.0000 C   0  0  0  0  0  0  0  0  0  0  0  0
   -0.1715    1.6320    0.0000 C   0  0  0  0  0  0  0  0  0  0  0  0
   -1.2330    0.0243    0.0000 C   0  0  0  0  0  0  0  0  0  0  0  0
   -2.0400    0.1958    0.0000 C   0  0  0  0  0  0  0  0  0  0  0  0
   -2.5461    1.7264    0.0000 C   0  0  0  0  0  0  0  0  0  0  0  0
   -3.3675    1.8041    0.0000 O   0  0  0  0  0  0  0  0  0  0  0  0
   -3.5475    2.6092    0.0000 C   0  0  0  0  0  0  0  0  0  0  0  0
   -2.8373    3.0291    0.0000 C   0  0  0  0  0  0  0  0  0  0  0  0
   -2.2185    2.4836    0.0000 C   0  0  0  0  0  0  0  0  0  0  0  0
   -1.4134    2.6635    0.0000 C   0  0  0  0  0  0  0  0  0  0  0  0
   -4.3046    2.9368    0.0000 C   0  0  0  0  0  0  0  0  0  0  0  0
   -4.9669    2.4449    0.0000 O   0  0  0  0  0  0  0  0  0  0  0  0
   -5.7241    2.7726    0.0000 C   0  0  0  0  0  0  0  0  0  0  0  0
   -5.9153    1.9701    0.0000 O   0  0  0  0  0  0  0  0  0  0  0  0
   -5.8189    3.5921    0.0000 C   0  0  0  0  0  0  0  0  0  0  0  0
   -5.1566    4.0840    0.0000 C   0  0  0  0  0  0  0  0  0  0  0  0
   -4.3994    3.7564    0.0000 C   0  0  0  0  0  0  0  0  0  0  0  0
   -3.7371    4.2482    0.0000 C   0  0  0  0  0  0  0  0  0  0  0  0
   -6.5760    3.9198    0.0000 C   0  0  0  0  0  0  0  0  0  0  0  0
   -6.5476    2.8215    0.0000 C   0  0  0  0  0  0  0  0  0  0  0  0
   -7.0018    2.1328    0.0000 O   0  0  0  0  0  0  0  0  0  0  0  0
   -2.9511    1.0249    0.0000 C   0  0  0  0  0  0  0  0  0  0  0  0
   -3.3711    0.3148    0.0000 C   0  0  0  0  0  0  0  0  0  0  0  0
    5.8070    3.9849    0.0000 Na  0  3  0  0  0  0  0  0  0  0  0  0
  1  2  1  0  0  0  0
  2  3  1  0  0  0  0
  3  4  1  0  0  0  0
  4  5  1  0  0  0  0
  5  6  1  0  0  0  0
  6  7  1  0  0  0  0
  7  8  1  0  0  0  0
  8  9  1  0  0  0  0
  9 10  1  0  0  0  0
 10 11  1  0  0  0  0
 10 12  1  0  0  0  0
  6 12  1  0  0  0  0
  9 13  1  0  0  0  0
  8 14  1  0  0  0  0
 14 15  1  0  0  0  0
 15 16  1  0  0  0  0
 16 17  1  0  0  0  0
 15 18  1  0  0  0  0
 18 19  1  0  0  0  0
 18 20  1  0  0  0  0
 20 21  1  0  0  0  0
 20 22  2  0  0  0  0
 14 23  1  0  0  0  0
  6 24  1  0  0  0  0
 24 25  1  0  0  0  0
  4 25  1  0  0  0  0
  4 26  1  0  0  0  0
  3 27  1  0  0  0  0
 27 28  1  0  0  0  0
  1 28  1  0  0  0  0
  1 29  1  0  0  0  0
 29 30  1  0  0  0  0
 30 31  1  0  0  0  0
 31 32  1  0  0  0  0
 32 33  1  0  0  0  0
 29 33  1  0  0  0  0
 33 34  1  0  0  0  0
 31 35  1  0  0  0  0
 35 36  1  0  0  0  0
 36 37  1  0  0  0  0
 37 38  1  0  0  0  0
 37 39  1  0  0  0  0
 39 40  1  0  0  0  0
 40 41  1  0  0  0  0
 35 41  1  0  0  0  0
 41 42  1  0  0  0  0
 39 43  1  0  0  0  0
 37 44  1  0  0  0  0
 44 45  1  0  0  0  0
  1 46  1  0  0  0  0
 46 47  1  0  0  0  0
M  CHG  2  21  -1  48   1
M  END
>  <Name>
Monensin sodium salt

>  <CAS>
22373-78-0

>  <Formula>
C36H61NaO11

>  <MolWt>
692.85 

>  <Bioactivity>
Sodium Monensin, isolated from Streptomyces cinnamonensis, is a well-known representative of naturally polyether ionophore antibiotics.

>  <Pathways>
Microbiology & Virology

>  <Target>
Antibiotic

>  <Receptor>
Others

>  <Reference>
1. Pinkerton M, et al. J Mol Biol, 1970, 49(3), 533-546.

$$$$
306-07-0
  Mrv1561503291623562D          

 14 12  0  0  0  0            999 V2000
    0.4125    0.0000    0.0000 H   0  3  0  0  0  0  0  0  0  0  0  0
    3.7272    0.5844    0.0000 C   0  0  0  0  0  0  0  0  0  0  0  0
    3.7272   -0.2406    0.0000 C   0  0  0  0  0  0  0  0  0  0  0  0
    4.4416   -0.6531    0.0000 C   0  0  0  0  0  0  0  0  0  0  0  0
    5.1561   -0.2406    0.0000 N   0  0  0  0  0  0  0  0  0  0  0  0
    5.8706   -0.6531    0.0000 C   0  0  0  0  0  0  0  0  0  0  0  0
    6.5850   -0.2406    0.0000 C   0  0  0  0  0  0  0  0  0  0  0  0
    7.2995    0.1719    0.0000 C   0  0  0  0  0  0  0  0  0  0  0  0
    5.1561    0.5844    0.0000 C   0  0  0  0  0  0  0  0  0  0  0  0
    3.0127   -0.6531    0.0000 C   0  0  0  0  0  0  0  0  0  0  0  0
    2.2982   -0.2406    0.0000 C   0  0  0  0  0  0  0  0  0  0  0  0
    2.2982    0.5844    0.0000 C   0  0  0  0  0  0  0  0  0  0  0  0
    3.0127    0.9969    0.0000 C   0  0  0  0  0  0  0  0  0  0  0  0
   -0.4125    0.0000    0.0000 Cl  0  5  0  0  0  0  0  0  0  0  0  0
  2  3  2  0  0  0  0
  3  4  1  0  0  0  0
  4  5  1  0  0  0  0
  5  6  1  0  0  0  0
  6  7  1  0  0  0  0
  7  8  3  0  0  0  0
  5  9  1  0  0  0  0
  3 10  1  0  0  0  0
 10 11  2  0  0  0  0
 11 12  1  0  0  0  0
 12 13  2  0  0  0  0
  2 13  1  0  0  0  0
M  CHG  2   1   1  14  -1
M  END
>  <Name>
Pargyline HCl

>  <CAS>
306-07-0

>  <Formula>
C11H14NCl

>  <MolWt>
195.69 

>  <Bioactivity>
A monoamine oxidase inhibitor with antihypertensive properties. 

>  <Pathways>
Metabolism

>  <Target>
MAO inhibitor

>  <Receptor>
MAO

>  <Reference>
1. Patkar AA, et al. CNS Spectr. 2006, 11(5):363-75.

$$$$
T1228
  Mrv1561503291623562D          

 37 38  0  0  1  0            999 V2000
    1.6905   -0.1510    0.0000 C   0  0  0  0  0  0  0  0  0  0  0  0
    2.4049    0.2615    0.0000 S   0  0  0  0  0  0  0  0  0  0  0  0
    3.1194   -0.1510    0.0000 C   0  0  0  0  0  0  0  0  0  0  0  0
    3.1194   -0.9760    0.0000 C   0  0  0  0  0  0  0  0  0  0  0  0
    2.4049   -1.3885    0.0000 C   0  0  0  0  0  0  0  0  0  0  0  0
    1.6905   -0.9760    0.0000 N   0  0  0  0  0  0  0  0  0  0  0  0
    0.8655   -0.9760    0.0000 C   0  0  0  0  0  0  0  0  0  0  0  0
    0.2821   -1.5593    0.0000 O   0  0  0  0  0  0  0  0  0  0  0  0
    0.8655   -0.1510    0.0000 C   0  0  0  0  0  0  0  0  0  0  0  0
    0.2821    0.4324    0.0000 N   0  0  0  0  0  0  0  0  0  0  0  0
   -0.5148    0.2189    0.0000 C   0  0  0  0  0  0  0  0  0  0  0  0
   -0.7283   -0.5780    0.0000 O   0  0  0  0  0  0  0  0  0  0  0  0
   -1.0982    0.8022    0.0000 C   0  0  0  0  0  0  0  0  0  0  0  0
   -0.8846    1.5991    0.0000 O   0  0  0  0  0  0  0  0  0  0  0  0
   -1.8950    0.5887    0.0000 C   0  0  0  0  0  0  0  0  0  0  0  0
   -2.1086   -0.2082    0.0000 C   0  0  0  0  0  0  0  0  0  0  0  0
   -2.9055   -0.4217    0.0000 C   0  0  0  0  0  0  0  0  0  0  0  0
   -3.4888    0.1616    0.0000 C   0  0  0  0  0  0  0  0  0  0  0  0
   -3.2753    0.9585    0.0000 C   0  0  0  0  0  0  0  0  0  0  0  0
   -2.4784    1.1721    0.0000 C   0  0  0  0  0  0  0  0  0  0  0  0
    2.4049   -2.2135    0.0000 C   0  0  0  0  0  0  0  0  0  0  0  0
    1.6905   -2.6260    0.0000 O   0  5  0  0  0  0  0  0  0  0  0  0
    3.1194   -2.6260    0.0000 O   0  0  0  0  0  0  0  0  0  0  0  0
    3.8339   -1.3885    0.0000 C   0  0  0  0  0  0  0  0  0  0  0  0
    3.8339   -2.2135    0.0000 S   0  0  0  0  0  0  0  0  0  0  0  0
    4.5483   -2.6260    0.0000 C   0  0  0  0  0  0  0  0  0  0  0  0
    5.3020   -2.2904    0.0000 N   0  0  0  0  0  0  0  0  0  0  0  0
    5.8540   -2.9035    0.0000 N   0  0  0  0  0  0  0  0  0  0  0  0
    5.4415   -3.6180    0.0000 N   0  0  0  0  0  0  0  0  0  0  0  0
    4.6346   -3.4465    0.0000 N   0  0  0  0  0  0  0  0  0  0  0  0
    4.0215   -3.9985    0.0000 C   0  0  0  0  0  0  0  0  0  0  0  0
    4.1930   -4.8055    0.0000 S   0  0  0  0  0  0  0  0  0  0  0  0
    4.3645   -5.6124    0.0000 O   0  5  0  0  0  0  0  0  0  0  0  0
    3.3860   -4.9770    0.0000 O   0  0  0  0  0  0  0  0  0  0  0  0
    5.0000   -4.6339    0.0000 O   0  0  0  0  0  0  0  0  0  0  0  0
    0.9760   -3.0385    0.0000 Na  0  3  0  0  0  0  0  0  0  0  0  0
    4.5361   -6.4194    0.0000 Na  0  3  0  0  0  0  0  0  0  0  0  0
  1  2  1  0  0  0  0
  2  3  1  0  0  0  0
  3  4  1  0  0  0  0
  4  5  2  0  0  0  0
  5  6  1  0  0  0  0
  1  6  1  0  0  0  0
  6  7  1  0  0  0  0
  7  8  2  0  0  0  0
  7  9  1  0  0  0  0
  1  9  1  0  0  0  0
  9 10  1  0  0  0  0
 10 11  1  0  0  0  0
 11 12  2  0  0  0  0
 11 13  1  0  0  0  0
 13 14  1  0  0  0  0
 13 15  1  0  0  0  0
 15 16  2  0  0  0  0
 16 17  1  0  0  0  0
 17 18  2  0  0  0  0
 18 19  1  0  0  0  0
 19 20  2  0  0  0  0
 15 20  1  0  0  0  0
  5 21  1  0  0  0  0
 21 22  1  0  0  0  0
 21 23  2  0  0  0  0
  4 24  1  0  0  0  0
 24 25  1  0  0  0  0
 25 26  1  0  0  0  0
 26 27  2  0  0  0  0
 27 28  1  0  0  0  0
 28 29  2  0  0  0  0
 29 30  1  0  0  0  0
 26 30  1  0  0  0  0
 30 31  1  0  0  0  0
 31 32  1  0  0  0  0
 32 33  1  0  0  0  0
 32 34  2  0  0  0  0
 32 35  2  0  0  0  0
M  CHG  4  22  -1  33  -1  36   1  37   1
M  END
>  <Name>
Cefonicid sodium

>  <CAS>
61270-78-8

>  <Formula>
C18H16N6Na2O8S3

>  <MolWt>
586.53 

>  <Bioactivity>
A second-generation cephalosporin administered intravenously or intramuscularly. Its bactericidal action results from inhibition of cell wall synthesis. It is used for urinary tract infections, lower respiratory tract infections, and soft tissue and bone infections. 

>  <Pathways>
Microbiology & Virology

>  <Target>
Antibacterial

>  <Receptor>
PBPs

>  <Reference>
1. Rake JB, et al. J Antibiot (Tokyo). 1984 May;37(5):572-6.

$$$$
T0263
  Mrv1561503291623562D          

 22 21  0  0  0  0            999 V2000
    0.4125    0.0000    0.0000 H   0  3  0  0  0  0  0  0  0  0  0  0
    4.4416    0.2681    0.0000 C   0  0  0  0  0  0  0  0  0  0  0  0
    4.4416   -0.5569    0.0000 C   0  0  0  0  0  0  0  0  0  0  0  0
    5.1561   -0.9694    0.0000 C   0  0  0  0  0  0  0  0  0  0  0  0
    5.8706   -0.5569    0.0000 N   0  0  0  0  0  0  0  0  0  0  0  0
    6.5850   -0.9694    0.0000 C   0  0  0  0  0  0  0  0  0  0  0  0
    7.2995   -0.5569    0.0000 C   0  0  0  0  0  0  0  0  0  0  0  0
    8.0140   -0.9694    0.0000 N   0  0  0  0  0  0  0  0  0  0  0  0
    8.7285   -0.5569    0.0000 C   0  0  0  0  0  0  0  0  0  0  0  0
    8.0140   -1.7944    0.0000 C   0  0  0  0  0  0  0  0  0  0  0  0
    5.8706    0.2681    0.0000 C   0  0  0  0  0  0  0  0  0  0  0  0
    5.1561    0.6806    0.0000 C   0  0  0  0  0  0  0  0  0  0  0  0
    5.1561    1.5056    0.0000 C   0  0  0  0  0  0  0  0  0  0  0  0
    5.8706    1.9181    0.0000 C   0  0  0  0  0  0  0  0  0  0  0  0
    6.5850    1.5056    0.0000 C   0  0  0  0  0  0  0  0  0  0  0  0
    6.5850    0.6806    0.0000 N   0  0  0  0  0  0  0  0  0  0  0  0
    3.7272   -0.9694    0.0000 C   0  0  0  0  0  0  0  0  0  0  0  0
    3.0127   -0.5569    0.0000 C   0  0  0  0  0  0  0  0  0  0  0  0
    3.0127    0.2681    0.0000 C   0  0  0  0  0  0  0  0  0  0  0  0
    3.7272    0.6806    0.0000 C   0  0  0  0  0  0  0  0  0  0  0  0
    2.2982    0.6806    0.0000 Cl  0  0  0  0  0  0  0  0  0  0  0  0
   -0.4125    0.0000    0.0000 Cl  0  5  0  0  0  0  0  0  0  0  0  0
  2  3  2  0  0  0  0
  3  4  1  0  0  0  0
  4  5  1  0  0  0  0
  5  6  1  0  0  0  0
  6  7  1  0  0  0  0
  7  8  1  0  0  0  0
  8  9  1  0  0  0  0
  8 10  1  0  0  0  0
  5 11  1  0  0  0  0
 11 12  2  0  0  0  0
 12 13  1  0  0  0  0
 13 14  2  0  0  0  0
 14 15  1  0  0  0  0
 15 16  2  0  0  0  0
 11 16  1  0  0  0  0
  3 17  1  0  0  0  0
 17 18  2  0  0  0  0
 18 19  1  0  0  0  0
 19 20  2  0  0  0  0
  2 20  1  0  0  0  0
 19 21  1  0  0  0  0
M  CHG  2   1   1  22  -1
M  END
>  <Name>
Chloropyramine HCl

>  <CAS>
6170-42-9

>  <Formula>
C16H20ClN3.HCl

>  <MolWt>
326.26 

>  <Bioactivity>
Chloropyramine is a first generation antihistamine drug approved in some Eastern European countries for the treatment of allergic conjunctivitis, allergic rhinitis, bronchial asthma, and other atopic (allergic) conditions. Related indications for clinical use include Quincke’s edema, allergic reactions to insect bites, food and drug allergies, and anaphylactic shock.

>  <Pathways>
Neuroscience

>  <Target>
Histamine Receptor antagonist;FAK-VEGFR-3

>  <Receptor>
Histamine H1 receptor;FAK-VEGFR-3

>  <Reference>
1. Budihna M, et al. Pflugers Arch. 1996;431(6 Suppl 2):R217-8.

$$$$
T1184
  Mrv1561503291623562D          

 29 32  0  0  0  0            999 V2000
    1.5528   -9.0331    0.0000 C   0  0  0  0  0  0  0  0  0  0  0  0
    0.7278   -9.0331    0.0000 C   0  0  0  0  0  0  0  0  0  0  0  0
    0.2428   -9.7006    0.0000 C   0  0  0  0  0  0  0  0  0  0  0  0
    0.5784  -10.4543    0.0000 N   0  0  0  0  0  0  0  0  0  0  0  0
    0.0935  -11.1217    0.0000 C   0  0  0  0  0  0  0  0  0  0  0  0
    0.4290  -11.8754    0.0000 C   0  0  0  0  0  0  0  0  0  0  0  0
    1.2360  -12.0469    0.0000 O   0  0  0  0  0  0  0  0  0  0  0  0
    1.3222  -12.8674    0.0000 C   0  0  0  0  0  0  0  0  0  0  0  0
    0.5686  -13.2029    0.0000 N   0  0  0  0  0  0  0  0  0  0  0  0
    0.3970  -14.0099    0.0000 C   0  0  0  0  0  0  0  0  0  0  0  0
    1.0101  -14.5619    0.0000 C   0  0  0  0  0  0  0  0  0  0  0  0
    0.8386  -15.3689    0.0000 C   0  0  0  0  0  0  0  0  0  0  0  0
    0.0540  -15.6239    0.0000 C   0  0  0  0  0  0  0  0  0  0  0  0
   -0.1175  -16.4308    0.0000 N   0  0  0  0  0  0  0  0  0  0  0  0
    0.4955  -16.9829    0.0000 C   0  0  0  0  0  0  0  0  0  0  0  0
    1.2802  -16.7279    0.0000 O   0  0  0  0  0  0  0  0  0  0  0  0
    0.3240  -17.7898    0.0000 C   0  0  0  0  0  0  0  0  0  0  0  0
   -0.4606  -18.0448    0.0000 O   0  0  0  0  0  0  0  0  0  0  0  0
   -1.0737  -17.4927    0.0000 C   0  0  0  0  0  0  0  0  0  0  0  0
   -0.9022  -16.6858    0.0000 C   0  0  0  0  0  0  0  0  0  0  0  0
   -0.5591  -15.0718    0.0000 C   0  0  0  0  0  0  0  0  0  0  0  0
   -0.3876  -14.2648    0.0000 C   0  0  0  0  0  0  0  0  0  0  0  0
    0.0165  -12.5898    0.0000 C   0  0  0  0  0  0  0  0  0  0  0  0
    2.0367  -13.2799    0.0000 O   0  0  0  0  0  0  0  0  0  0  0  0
   -0.5776   -9.6143    0.0000 O   0  0  0  0  0  0  0  0  0  0  0  0
    0.4728   -8.2485    0.0000 S   0  0  0  0  0  0  0  0  0  0  0  0
    1.1403   -7.7636    0.0000 C   0  0  0  0  0  0  0  0  0  0  0  0
    1.8077   -8.2485    0.0000 C   0  0  0  0  0  0  0  0  0  0  0  0
    1.1403   -6.9386    0.0000 Cl  0  0  0  0  0  0  0  0  0  0  0  0
  1  2  2  0  0  0  0
  2  3  1  0  0  0  0
  3  4  1  0  0  0  0
  4  5  1  0  0  0  0
  5  6  1  0  0  0  0
  6  7  1  0  0  0  0
  7  8  1  0  0  0  0
  8  9  1  0  0  0  0
  9 10  1  0  0  0  0
 10 11  2  0  0  0  0
 11 12  1  0  0  0  0
 12 13  2  0  0  0  0
 13 14  1  0  0  0  0
 14 15  1  0  0  0  0
 15 16  2  0  0  0  0
 15 17  1  0  0  0  0
 17 18  1  0  0  0  0
 18 19  1  0  0  0  0
 19 20  1  0  0  0  0
 14 20  1  0  0  0  0
 13 21  1  0  0  0  0
 21 22  2  0  0  0  0
 10 22  1  0  0  0  0
  9 23  1  0  0  0  0
  6 23  1  0  0  0  0
  8 24  2  0  0  0  0
  3 25  2  0  0  0  0
  2 26  1  0  0  0  0
 26 27  1  0  0  0  0
 27 28  2  0  0  0  0
  1 28  1  0  0  0  0
 27 29  1  0  0  0  0
M  END
>  <Name>
Rivaroxaban

>  <CAS>
366789-02-8

>  <Formula>
C19H18ClN3O5S

>  <MolWt>
435.88 

>  <Bioactivity>
Rivaroxaban is an anticoagulant and the first orally active direct factor Xa inhibitor. Unlike warfarin, routine lab monitoring of INR is not necessary. 

>  <Pathways>
Angiogenesis

>  <Target>
Factor Xa inhibitor

>  <Receptor>
Factor Xa

>  <Reference>
1. Perzborn E, et al. J Thromb Haemost, 2005, 3(3), 514–521.

$$$$
T0180
  Mrv1561503291623562D          

 33 33  0  0  1  0            999 V2000
    0.1912    0.7145    0.0000 C   0  0  0  0  0  0  0  0  0  0  0  0
    1.0162    0.7145    0.0000 N   0  0  0  0  0  0  0  0  0  0  0  0
    1.4287    0.0001    0.0000 C   0  0  0  0  0  0  0  0  0  0  0  0
    1.0162   -0.7144    0.0000 C   0  0  0  0  0  0  0  0  0  0  0  0
    1.4287   -1.4289    0.0000 C   0  0  0  0  0  0  0  0  0  0  0  0
    1.0162   -2.1433    0.0000 C   0  0  0  0  0  0  0  0  0  0  0  0
    1.4287   -2.8578    0.0000 C   0  0  0  0  0  0  0  0  0  0  0  0
    1.0162   -3.5723    0.0000 C   0  0  0  0  0  0  0  0  0  0  0  0
    0.1912   -3.5723    0.0000 C   0  0  0  0  0  0  0  0  0  0  0  0
   -0.2213   -2.8578    0.0000 C   0  0  0  0  0  0  0  0  0  0  0  0
    0.1912   -2.1433    0.0000 C   0  0  0  0  0  0  0  0  0  0  0  0
    2.2537    0.0001    0.0000 C   0  0  0  0  0  0  0  0  0  0  0  0
    2.6662   -0.7144    0.0000 O   0  0  0  0  0  0  0  0  0  0  0  0
    3.4912   -0.7144    0.0000 C   0  0  0  0  0  0  0  0  0  0  0  0
    3.9037   -1.4289    0.0000 C   0  0  0  0  0  0  0  0  0  0  0  0
    2.6662    0.7145    0.0000 O   0  0  0  0  0  0  0  0  0  0  0  0
   -0.1668   -0.0288    0.0000 C   0  0  0  0  0  0  0  0  0  0  0  0
   -0.9711   -0.2123    0.0000 C   0  0  0  0  0  0  0  0  0  0  0  0
   -1.6161    0.3020    0.0000 C   0  0  0  0  0  0  0  0  0  0  0  0
   -2.3306   -0.1105    0.0000 C   0  0  0  0  0  0  0  0  0  0  0  0
   -3.0451    0.3020    0.0000 C   0  0  0  0  0  0  0  0  0  0  0  0
   -3.0451    1.1270    0.0000 C   0  0  0  0  0  0  0  0  0  0  0  0
   -2.3306    1.5395    0.0000 C   0  0  0  0  0  0  0  0  0  0  0  0
   -1.6161    1.1270    0.0000 C   0  0  0  0  0  0  0  0  0  0  0  0
   -0.9711    1.6414    0.0000 N   0  0  0  0  0  0  0  0  0  0  0  0
   -0.1668    1.4578    0.0000 C   0  0  0  0  0  0  0  0  0  0  0  0
    0.3476    2.1029    0.0000 O   0  0  0  0  0  0  0  0  0  0  0  0
   -1.1547    2.4457    0.0000 C   0  0  0  0  0  0  0  0  0  0  0  0
   -1.9430    2.6889    0.0000 C   0  0  0  0  0  0  0  0  0  0  0  0
   -2.1266    3.4932    0.0000 O   0  0  0  0  0  0  0  0  0  0  0  0
   -2.5478    2.1278    0.0000 O   0  0  0  0  0  0  0  0  0  0  0  0
    7.0858    0.0000    0.0000 H   0  3  0  0  0  0  0  0  0  0  0  0
    6.2608    0.0000    0.0000 Cl  0  5  0  0  0  0  0  0  0  0  0  0
  1  2  1  0  0  0  0
  2  3  1  0  0  0  0
  3  4  1  0  0  0  0
  4  5  1  0  0  0  0
  5  6  1  0  0  0  0
  6  7  2  0  0  0  0
  7  8  1  0  0  0  0
  8  9  2  0  0  0  0
  9 10  1  0  0  0  0
 10 11  2  0  0  0  0
  6 11  1  0  0  0  0
  3 12  1  0  0  0  0
 12 13  1  0  0  0  0
 13 14  1  0  0  0  0
 14 15  1  0  0  0  0
 12 16  2  0  0  0  0
  1 17  1  0  0  0  0
 17 18  1  0  0  0  0
 18 19  1  0  0  0  0
 19 20  2  0  0  0  0
 20 21  1  0  0  0  0
 21 22  2  0  0  0  0
 22 23  1  0  0  0  0
 23 24  2  0  0  0  0
 19 24  1  0  0  0  0
 24 25  1  0  0  0  0
 25 26  1  0  0  0  0
  1 26  1  0  0  0  0
 26 27  2  0  0  0  0
 25 28  1  0  0  0  0
 28 29  1  0  0  0  0
 29 30  1  0  0  0  0
 29 31  2  0  0  0  0
M  CHG  2  32   1  33  -1
M  END
>  <Name>
Benazepril HCl

>  <CAS>
86541-74-4

>  <Formula>
C24H29ClN2O5

>  <MolWt>
460.95 

>  <Bioactivity>
Benazepril, brand name Lotensin, is a medication used to treat high blood pressure (hypertension), congestive heart failure, and chronic renal failure. Upon cleavage of its ester group by the liver, benazepril is converted into its active form benazeprilat, a non-sulfhydryl angiotensin-converting enzyme (ACE) inhibitor.

>  <Pathways>
Angiogenesis;Endocrinology/ Hormones

>  <Target>
RAAS inhibitor; ACE inhibitor

>  <Receptor>
ACE

>  <Reference>
1. Song JC, White CM. Clin Pharmacokinet. 2002;41(3):207-24. 

$$$$
63074-08-8
  Mrv1561503291623562D          

 30 31  0  0  0  0            999 V2000
    0.4125    0.0000    0.0000 H   0  3  0  0  0  0  0  0  0  0  0  0
    4.9131   -1.4400    0.0000 C   0  0  0  0  0  0  0  0  0  0  0  0
    5.6275   -1.0275    0.0000 C   0  0  0  0  0  0  0  0  0  0  0  0
    5.6275   -0.2025    0.0000 C   0  0  0  0  0  0  0  0  0  0  0  0
    4.9131    0.2100    0.0000 C   0  0  0  0  0  0  0  0  0  0  0  0
    4.1986   -0.2025    0.0000 C   0  0  0  0  0  0  0  0  0  0  0  0
    4.1986   -1.0275    0.0000 C   0  0  0  0  0  0  0  0  0  0  0  0
    3.4841   -1.4400    0.0000 O   0  0  0  0  0  0  0  0  0  0  0  0
    2.7696   -1.0275    0.0000 C   0  0  0  0  0  0  0  0  0  0  0  0
    3.4841    0.2100    0.0000 O   0  0  0  0  0  0  0  0  0  0  0  0
    2.7696   -0.2025    0.0000 C   0  0  0  0  0  0  0  0  0  0  0  0
    6.3420    0.2100    0.0000 N   0  0  0  0  0  0  0  0  0  0  0  0
    7.0565   -0.2025    0.0000 C   0  0  0  0  0  0  0  0  0  0  0  0
    7.7709    0.2100    0.0000 N   0  0  0  0  0  0  0  0  0  0  0  0
    7.7709    1.0350    0.0000 C   0  0  0  0  0  0  0  0  0  0  0  0
    8.4854    1.4475    0.0000 C   0  0  0  0  0  0  0  0  0  0  0  0
    9.1999    1.0350    0.0000 N   0  0  0  0  0  0  0  0  0  0  0  0
    9.9144    1.4475    0.0000 C   0  0  0  0  0  0  0  0  0  0  0  0
    9.9144    2.2725    0.0000 O   0  0  0  0  0  0  0  0  0  0  0  0
   10.6288    1.0350    0.0000 C   0  0  0  0  0  0  0  0  0  0  0  0
   11.3825    1.3705    0.0000 O   0  0  0  0  0  0  0  0  0  0  0  0
   11.9345    0.7574    0.0000 C   0  0  0  0  0  0  0  0  0  0  0  0
   11.5220    0.0430    0.0000 C   0  0  0  0  0  0  0  0  0  0  0  0
   10.7151    0.2145    0.0000 C   0  0  0  0  0  0  0  0  0  0  0  0
    9.1999    0.2100    0.0000 C   0  0  0  0  0  0  0  0  0  0  0  0
    8.4854   -0.2025    0.0000 C   0  0  0  0  0  0  0  0  0  0  0  0
    7.0565   -1.0275    0.0000 N   0  0  0  0  0  0  0  0  0  0  0  0
    6.3420   -1.4400    0.0000 C   0  0  0  0  0  0  0  0  0  0  0  0
    6.3420   -2.2650    0.0000 N   0  0  0  0  0  0  0  0  0  0  0  0
   -0.4125    0.0000    0.0000 Cl  0  5  0  0  0  0  0  0  0  0  0  0
  2  3  2  0  0  0  0
  3  4  1  0  0  0  0
  4  5  2  0  0  0  0
  5  6  1  0  0  0  0
  6  7  2  0  0  0  0
  2  7  1  0  0  0  0
  7  8  1  0  0  0  0
  8  9  1  0  0  0  0
  6 10  1  0  0  0  0
 10 11  1  0  0  0  0
  4 12  1  0  0  0  0
 12 13  2  0  0  0  0
 13 14  1  0  0  0  0
 14 15  1  0  0  0  0
 15 16  1  0  0  0  0
 16 17  1  0  0  0  0
 17 18  1  0  0  0  0
 18 19  2  0  0  0  0
 18 20  1  0  0  0  0
 20 21  1  0  0  0  0
 21 22  1  0  0  0  0
 22 23  1  0  0  0  0
 23 24  1  0  0  0  0
 20 24  1  0  0  0  0
 17 25  1  0  0  0  0
 25 26  1  0  0  0  0
 14 26  1  0  0  0  0
 13 27  1  0  0  0  0
 27 28  2  0  0  0  0
  3 28  1  0  0  0  0
 28 29  1  0  0  0  0
M  CHG  2   1   1  30  -1
M  END
>  <Name>
Terazosin HCl

>  <CAS>
63074-08-8

>  <Formula>
C19H26ClN5O4

>  <MolWt>
423.89 

>  <Bioactivity>
Terazosin is a selective alpha1-antagonist used for treatment of symptoms of benign prostatic hyperplasia (BPH). It also acts to lower blood pressure, so it is a drug of choice for men with hypertension and prostate enlargement. It works by blocking the action of adrenaline on smooth muscle of the bladder and the blood vessel walls.

>  <Pathways>
GPCR/G Protein

>  <Target>
Adrenergic Receptor antagonist

>  <Receptor>
?-adrenergic receptor

>  <Reference>
1. Lee E, Lee C. Br J Urol. 1997 Oct;80(4):606-11.

$$$$
6385-02-0
  Mrv1561503291623562D          

 20 20  0  0  0  0            999 V2000
    2.8579   -1.6500    0.0000 C   0  0  0  0  0  0  0  0  0  0  0  0
    2.8579   -2.4750    0.0000 C   0  0  0  0  0  0  0  0  0  0  0  0
    2.1434   -2.8875    0.0000 C   0  0  0  0  0  0  0  0  0  0  0  0
    1.4289   -2.4750    0.0000 C   0  0  0  0  0  0  0  0  0  0  0  0
    1.4289   -1.6500    0.0000 C   0  0  0  0  0  0  0  0  0  0  0  0
    2.1434   -1.2375    0.0000 C   0  0  0  0  0  0  0  0  0  0  0  0
    2.1434   -0.4125    0.0000 Cl  0  0  0  0  0  0  0  0  0  0  0  0
    0.7145   -1.2375    0.0000 N   0  0  0  0  0  0  0  0  0  0  0  0
    0.7145   -0.4125    0.0000 C   0  0  0  0  0  0  0  0  0  0  0  0
    0.0000    0.0000    0.0000 C   0  0  0  0  0  0  0  0  0  0  0  0
    0.0000    0.8250    0.0000 C   0  0  0  0  0  0  0  0  0  0  0  0
    0.7145    1.2375    0.0000 C   0  0  0  0  0  0  0  0  0  0  0  0
    1.4289    0.8250    0.0000 C   0  0  0  0  0  0  0  0  0  0  0  0
    1.4289    0.0000    0.0000 C   0  0  0  0  0  0  0  0  0  0  0  0
   -0.7145   -0.4125    0.0000 C   0  0  0  0  0  0  0  0  0  0  0  0
   -1.4289    0.0000    0.0000 O   0  0  0  0  0  0  0  0  0  0  0  0
   -0.7145   -1.2375    0.0000 O   0  5  0  0  0  0  0  0  0  0  0  0
    0.7145   -2.8875    0.0000 Cl  0  0  0  0  0  0  0  0  0  0  0  0
    2.1434   -3.7125    0.0000 C   0  0  0  0  0  0  0  0  0  0  0  0
   -0.7145   -2.0625    0.0000 Na  0  3  0  0  0  0  0  0  0  0  0  0
  1  2  2  0  0  0  0
  2  3  1  0  0  0  0
  3  4  2  0  0  0  0
  4  5  1  0  0  0  0
  5  6  2  0  0  0  0
  1  6  1  0  0  0  0
  6  7  1  0  0  0  0
  5  8  1  0  0  0  0
  8  9  1  0  0  0  0
  9 10  2  0  0  0  0
 10 11  1  0  0  0  0
 11 12  2  0  0  0  0
 12 13  1  0  0  0  0
 13 14  2  0  0  0  0
  9 14  1  0  0  0  0
 10 15  1  0  0  0  0
 15 16  2  0  0  0  0
 15 17  1  0  0  0  0
  4 18  1  0  0  0  0
  3 19  1  0  0  0  0
M  CHG  2  17  -1  20   1
M  END
>  <Name>
Meclofenamate Sodium

>  <CAS>
6385-02-0

>  <Formula>
C14H10Cl2NNaO2

>  <MolWt>
318.14 

>  <Bioactivity>
A non-steroidal anti-inflammatory agent with antipyretic and antigranulation activities. It also inhibits prostaglandin biosynthesis.

>  <Pathways>
Neuroscience

>  <Target>
COX inhibitor

>  <Receptor>
Prostaglandin G/H synthase

>  <Reference>
1. Soriano-Hernández AD, et al. Int Urol Nephrol. 2012 Apr;44(2):471-7.

$$$$
33402-03-8
  Mrv1561503291623562D          

 22 21  0  0  1  0            999 V2000
    0.3572    0.2063    0.0000 C   0  0  2  0  0  0  0  0  0  0  0  0
    0.3572    1.0313    0.0000 O   0  0  0  0  0  0  0  0  0  0  0  0
   -0.3572   -0.2062    0.0000 C   0  0  1  0  0  0  0  0  0  0  0  0
   -0.3572   -1.0312    0.0000 O   0  0  0  0  0  0  0  0  0  0  0  0
   -1.0717    0.2063    0.0000 C   0  0  0  0  0  0  0  0  0  0  0  0
   -1.7862   -0.2063    0.0000 O   0  0  0  0  0  0  0  0  0  0  0  0
   -1.0717    1.0312    0.0000 O   0  0  0  0  0  0  0  0  0  0  0  0
    1.0717   -0.2062    0.0000 C   0  0  0  0  0  0  0  0  0  0  0  0
    1.7862    0.2063    0.0000 O   0  0  0  0  0  0  0  0  0  0  0  0
    1.0717   -1.0312    0.0000 O   0  0  0  0  0  0  0  0  0  0  0  0
    5.1008   -0.3781    0.0000 C   0  0  0  0  0  0  0  0  0  0  0  0
    5.1008   -1.2031    0.0000 C   0  0  0  0  0  0  0  0  0  0  0  0
    5.8153   -1.6156    0.0000 O   0  0  0  0  0  0  0  0  0  0  0  0
    4.3864   -1.6156    0.0000 C   0  0  0  0  0  0  0  0  0  0  0  0
    3.6719   -1.2031    0.0000 C   0  0  0  0  0  0  0  0  0  0  0  0
    3.6719   -0.3781    0.0000 C   0  0  0  0  0  0  0  0  0  0  0  0
    4.3864    0.0344    0.0000 C   0  0  0  0  0  0  0  0  0  0  0  0
    4.3864    0.8594    0.0000 C   0  0  0  0  0  0  0  0  0  0  0  0
    3.6719    1.2719    0.0000 O   0  0  0  0  0  0  0  0  0  0  0  0
    5.1008    1.2719    0.0000 C   0  0  0  0  0  0  0  0  0  0  0  0
    5.1008    2.0969    0.0000 N   0  0  0  0  0  0  0  0  0  0  0  0
    5.8153    0.8594    0.0000 C   0  0  0  0  0  0  0  0  0  0  0  0
  1  2  1  1  0  0  0
  1  3  1  0  0  0  0
  3  4  1  1  0  0  0
  3  5  1  0  0  0  0
  5  6  2  0  0  0  0
  5  7  1  0  0  0  0
  1  8  1  0  0  0  0
  8  9  2  0  0  0  0
  8 10  1  0  0  0  0
 11 12  2  0  0  0  0
 12 13  1  0  0  0  0
 12 14  1  0  0  0  0
 14 15  2  0  0  0  0
 15 16  1  0  0  0  0
 16 17  2  0  0  0  0
 11 17  1  0  0  0  0
 17 18  1  0  0  0  0
 18 19  1  0  0  0  0
 18 20  1  0  0  0  0
 20 21  1  0  0  0  0
 20 22  1  0  0  0  0
M  END
>  <Name>
Metaraminol bitartrate

>  <CAS>
33402-03-8

>  <Formula>
C13H19NO8

>  <MolWt>
317.29 

>  <Bioactivity>
A sympathomimetic agent that acts predominantly at alpha-1 adrenergic receptors. It has been used primarily as a vasoconstrictor in the treatment of HYPOTENSION.

>  <Pathways>
GPCR/G Protein

>  <Target>
Adrenergic Receptor agonist

>  <Receptor>
?-adrenergic receptor

>  <Reference>
1. Tatsuta M, et al. Int J Cancer. 1998 Jul 29;77(3):467-9. 

$$$$
7280-37-7
  Mrv1561503291623562D          

 30 33  0  0  1  0            999 V2000
   -1.0327    0.5103    0.0000 C   0  0  1  0  0  0  0  0  0  0  0  0
   -0.5009   -0.1204    0.0000 C   0  0  1  0  0  0  0  0  0  0  0  0
    0.3112    0.0248    0.0000 C   0  0  0  0  0  0  0  0  0  0  0  0
    0.5915    0.8007    0.0000 C   0  0  0  0  0  0  0  0  0  0  0  0
    1.4036    0.9459    0.0000 C   0  0  0  0  0  0  0  0  0  0  0  0
    1.9354    0.3152    0.0000 C   0  0  0  0  0  0  0  0  0  0  0  0
    2.7476    0.4605    0.0000 O   0  0  0  0  0  0  0  0  0  0  0  0
    3.2794   -0.1703    0.0000 S   0  0  0  0  0  0  0  0  0  0  0  0
    3.8112   -0.8010    0.0000 O   0  0  0  0  0  0  0  0  0  0  0  0
    3.9101    0.3616    0.0000 O   0  0  0  0  0  0  0  0  0  0  0  0
    2.6487   -0.7021    0.0000 O   0  0  0  0  0  0  0  0  0  0  0  0
    1.6551   -0.4607    0.0000 C   0  0  0  0  0  0  0  0  0  0  0  0
    0.8430   -0.6059    0.0000 C   0  0  0  0  0  0  0  0  0  0  0  0
    0.0597    1.4314    0.0000 C   0  0  0  0  0  0  0  0  0  0  0  0
   -0.7524    1.2862    0.0000 C   0  0  0  0  0  0  0  0  0  0  0  0
   -0.7812   -0.8963    0.0000 C   0  0  0  0  0  0  0  0  0  0  0  0
   -1.5933   -1.0416    0.0000 C   0  0  0  0  0  0  0  0  0  0  0  0
   -2.1251   -0.4108    0.0000 C   0  0  1  0  0  0  0  0  0  0  0  0
   -1.8448    0.3651    0.0000 C   0  0  1  0  0  0  0  0  0  0  0  0
   -2.4962    0.8714    0.0000 C   0  0  0  0  0  0  0  0  0  0  0  0
   -3.1790    0.4085    0.0000 C   0  0  0  0  0  0  0  0  0  0  0  0
   -2.9497   -0.3840    0.0000 C   0  0  0  0  0  0  0  0  0  0  0  0
   -3.4561   -1.0354    0.0000 O   0  0  0  0  0  0  0  0  0  0  0  0
   -2.4850   -1.1532    0.0000 C   0  0  0  0  0  0  0  0  0  0  0  0
    6.9817    0.8250    0.0000 C   0  0  0  0  0  0  0  0  0  0  0  0
    7.6962    0.4125    0.0000 C   0  0  0  0  0  0  0  0  0  0  0  0
    7.6962   -0.4125    0.0000 N   0  0  0  0  0  0  0  0  0  0  0  0
    6.9817   -0.8250    0.0000 C   0  0  0  0  0  0  0  0  0  0  0  0
    6.2672   -0.4125    0.0000 C   0  0  0  0  0  0  0  0  0  0  0  0
    6.2672    0.4125    0.0000 N   0  0  0  0  0  0  0  0  0  0  0  0
  1  2  1  0  0  0  0
  2  3  1  0  0  0  0
  3  4  2  0  0  0  0
  4  5  1  0  0  0  0
  5  6  2  0  0  0  0
  6  7  1  0  0  0  0
  7  8  1  0  0  0  0
  8  9  1  0  0  0  0
  8 10  2  0  0  0  0
  8 11  2  0  0  0  0
  6 12  1  0  0  0  0
 12 13  2  0  0  0  0
  3 13  1  0  0  0  0
  4 14  1  0  0  0  0
 14 15  1  0  0  0  0
  1 15  1  6  0  0  0
  2 16  1  1  0  0  0
 16 17  1  0  0  0  0
 17 18  1  0  0  0  0
 18 19  1  0  0  0  0
  1 19  1  0  0  0  0
 19 20  1  1  0  0  0
 20 21  1  0  0  0  0
 21 22  1  0  0  0  0
 18 22  1  0  0  0  0
 22 23  2  0  0  0  0
 18 24  1  1  0  0  0
 25 26  1  0  0  0  0
 26 27  1  0  0  0  0
 27 28  1  0  0  0  0
 28 29  1  0  0  0  0
 29 30  1  0  0  0  0
 25 30  1  0  0  0  0
M  END
>  <Name>
Estropipate

>  <CAS>
7280-37-7

>  <Formula>
C22H32N2O5S

>  <MolWt>
436.56 

>  <Bioactivity>
Estropipate is a form of estrogen. It has several uses such as: Alleviate symptoms of menopause as hormone replacement therapy, treatment some types of infertility, treatment of some conditions leading to underdevelopment of female sexual characteristics,treatment of vaginal atrophy,treatment of some types of breast cancer (particularly in men and postmenopausal women), treatment of prostate cancer and prevention of osteoporosis. 

>  <Pathways>
Endocrinology/ Hormones

>  <Target>
Estrogen/Progestogen Receptor agonist

>  <Receptor>
Estrogen receptor

>  <Reference>
1. Brama M, et al. Mol Cell Endocrinol. 2007 Jan 29;264(1-2):102-8. 

$$$$
T0486
  Mrv1561503291623562D          

 48 49  0  0  1  0            999 V2000
    4.5523    1.0065    0.0000 C   0  0  0  0  0  0  0  0  0  0  0  0
    4.8614    1.7714    0.0000 O   0  0  0  0  0  0  0  0  0  0  0  0
    4.0003    0.3934    0.0000 C   0  0  0  0  0  0  0  0  0  0  0  0
    4.2552   -0.3913    0.0000 C   0  0  0  0  0  0  0  0  0  0  0  0
    3.7032   -1.0044    0.0000 C   0  0  0  0  0  0  0  0  0  0  0  0
    3.9581   -1.7890    0.0000 O   0  0  0  0  0  0  0  0  0  0  0  0
    2.8962   -0.8328    0.0000 N   0  0  0  0  0  0  0  0  0  0  0  0
    2.6413   -0.0482    0.0000 C   0  0  0  0  0  0  0  0  0  0  0  0
    3.1933    0.5649    0.0000 C   0  0  0  0  0  0  0  0  0  0  0  0
    1.8163   -0.0482    0.0000 C   0  0  0  0  0  0  0  0  0  0  0  0
    1.2643    0.5649    0.0000 N   0  0  0  0  0  0  0  0  0  0  0  0
    0.4573    0.3934    0.0000 C   0  0  0  0  0  0  0  0  0  0  0  0
    0.2024   -0.3913    0.0000 C   0  0  0  0  0  0  0  0  0  0  0  0
    0.7544   -1.0044    0.0000 C   0  0  0  0  0  0  0  0  0  0  0  0
    1.5614   -0.8328    0.0000 C   0  0  0  0  0  0  0  0  0  0  0  0
    2.2288   -1.3177    0.0000 C   0  0  0  0  0  0  0  0  0  0  0  0
    0.4994   -1.7890    0.0000 C   0  0  0  0  0  0  0  0  0  0  0  0
    1.0515   -2.4021    0.0000 C   0  0  0  0  0  0  0  0  0  0  0  0
   -0.6046   -0.5628    0.0000 C   0  0  0  0  0  0  0  0  0  0  0  0
   -1.1567    0.0503    0.0000 C   0  0  0  0  0  0  0  0  0  0  0  0
   -1.9636   -0.1212    0.0000 O   0  0  0  0  0  0  0  0  0  0  0  0
   -2.5157    0.4919    0.0000 C   0  0  0  0  0  0  0  0  0  0  0  0
   -2.2607    1.2765    0.0000 O   0  0  0  0  0  0  0  0  0  0  0  0
   -3.3226    0.3203    0.0000 N   0  0  0  0  0  0  0  0  0  0  0  0
   -3.5776   -0.4643    0.0000 C   0  0  0  0  0  0  0  0  0  0  0  0
   -4.3845   -0.6358    0.0000 C   0  0  0  0  0  0  0  0  0  0  0  0
   -4.9366   -0.0227    0.0000 C   0  0  0  0  0  0  0  0  0  0  0  0
   -5.7435   -0.1942    0.0000 N   0  0  0  0  0  0  0  0  0  0  0  0
   -5.9985   -0.9789    0.0000 C   0  0  0  0  0  0  0  0  0  0  0  0
   -6.8055   -1.1504    0.0000 C   0  0  0  0  0  0  0  0  0  0  0  0
   -7.3575   -0.5373    0.0000 C   0  0  0  0  0  0  0  0  0  0  0  0
   -7.1025    0.2473    0.0000 C   0  0  0  0  0  0  0  0  0  0  0  0
   -6.2956    0.4189    0.0000 C   0  0  0  0  0  0  0  0  0  0  0  0
   -4.6816    0.7619    0.0000 C   0  0  0  0  0  0  0  0  0  0  0  0
   -3.8747    0.9334    0.0000 C   0  0  0  0  0  0  0  0  0  0  0  0
   -0.9017    0.8349    0.0000 C   0  0  0  0  0  0  0  0  0  0  0  0
   -0.0947    1.0065    0.0000 C   0  0  0  0  0  0  0  0  0  0  0  0
    5.0622   -0.5628    0.0000 C   0  0  0  0  0  0  0  0  0  0  0  0
    5.6142    0.0503    0.0000 O   0  0  0  0  0  0  0  0  0  0  0  0
    5.3593    0.8349    0.0000 C   0  0  0  0  0  0  0  0  0  0  0  0
    5.9113    1.4480    0.0000 O   0  0  0  0  0  0  0  0  0  0  0  0
    3.8527    1.4436    0.0000 C   0  0  0  0  0  0  0  0  0  0  0  0
    3.8815    2.2681    0.0000 C   0  0  0  0  0  0  0  0  0  0  0  0
    9.0935    0.0000    0.0000 H   0  3  0  0  0  0  0  0  0  0  0  0
    8.2685    0.0000    0.0000 Cl  0  5  0  0  0  0  0  0  0  0  0  0
   11.4506    0.0000    0.0000 O   0  0  0  0  0  0  0  0  0  0  0  0
    0.0000   -4.0521    0.0000 O   0  0  0  0  0  0  0  0  0  0  0  0
    2.3571   -4.0521    0.0000 O   0  0  0  0  0  0  0  0  0  0  0  0
  1  2  1  0  0  0  0
  1  3  1  0  0  0  0
  3  4  2  0  0  0  0
  4  5  1  0  0  0  0
  5  6  2  0  0  0  0
  5  7  1  0  0  0  0
  7  8  1  0  0  0  0
  8  9  2  0  0  0  0
  3  9  1  0  0  0  0
  8 10  1  0  0  0  0
 10 11  2  0  0  0  0
 11 12  1  0  0  0  0
 12 13  2  0  0  0  0
 13 14  1  0  0  0  0
 14 15  2  0  0  0  0
 10 15  1  0  0  0  0
 15 16  1  0  0  0  0
  7 16  1  0  0  0  0
 14 17  1  0  0  0  0
 17 18  1  0  0  0  0
 13 19  1  0  0  0  0
 19 20  2  0  0  0  0
 20 21  1  0  0  0  0
 21 22  1  0  0  0  0
 22 23  2  0  0  0  0
 22 24  1  0  0  0  0
 24 25  1  0  0  0  0
 25 26  1  0  0  0  0
 26 27  1  0  0  0  0
 27 28  1  0  0  0  0
 28 29  1  0  0  0  0
 29 30  1  0  0  0  0
 30 31  1  0  0  0  0
 31 32  1  0  0  0  0
 32 33  1  0  0  0  0
 28 33  1  0  0  0  0
 27 34  1  0  0  0  0
 34 35  1  0  0  0  0
 24 35  1  0  0  0  0
 20 36  1  0  0  0  0
 36 37  2  0  0  0  0
 12 37  1  0  0  0  0
  4 38  1  0  0  0  0
 38 39  1  0  0  0  0
 39 40  1  0  0  0  0
  1 40  1  0  0  0  0
 40 41  2  0  0  0  0
  1 42  1  0  0  0  0
 42 43  1  0  0  0  0
M  CHG  2  44   1  45  -1
M  END
>  <Name>
Irinotecan HCl Trihydrate

>  <CAS>
136572-09-3

>  <Formula>
C33H45ClN4O9

>  <MolWt>
677.18 

>  <Bioactivity>
Irinotecan prevents DNA from unwinding by inhibition of topoisomerase 1.

>  <Pathways>
DNA Damage/DNA Repair

>  <Target>
Topoisomerase inhibitor

>  <Receptor>
Topoisomerase I 

>  <Reference>
1. Tsuruo T, et al. Cancer Chemother Pharmacol. 1988;21(1):71-4.

$$$$
2438-32-6
  Mrv1561503291623562D          

 27 27  0  0  1  0            999 V2000
    0.1128    0.0651    0.0000 C   0  0  1  0  0  0  0  0  0  0  0  0
   -0.6017    0.4776    0.0000 C   0  0  0  0  0  0  0  0  0  0  0  0
   -1.3161    0.0651    0.0000 C   0  0  0  0  0  0  0  0  0  0  0  0
   -2.0306    0.4776    0.0000 C   0  0  0  0  0  0  0  0  0  0  0  0
   -2.0306    1.3026    0.0000 C   0  0  0  0  0  0  0  0  0  0  0  0
   -2.7451    1.7151    0.0000 Cl  0  0  0  0  0  0  0  0  0  0  0  0
   -1.3161    1.7151    0.0000 C   0  0  0  0  0  0  0  0  0  0  0  0
   -0.6017    1.3026    0.0000 C   0  0  0  0  0  0  0  0  0  0  0  0
    0.1128   -0.7599    0.0000 C   0  0  0  0  0  0  0  0  0  0  0  0
    0.8273   -1.1724    0.0000 N   0  0  0  0  0  0  0  0  0  0  0  0
    0.8273   -1.9974    0.0000 C   0  0  0  0  0  0  0  0  0  0  0  0
    0.1128   -2.4099    0.0000 C   0  0  0  0  0  0  0  0  0  0  0  0
   -0.6017   -1.9974    0.0000 C   0  0  0  0  0  0  0  0  0  0  0  0
   -0.6017   -1.1724    0.0000 C   0  0  0  0  0  0  0  0  0  0  0  0
    0.8273    0.4776    0.0000 C   0  0  0  0  0  0  0  0  0  0  0  0
    1.5418    0.0651    0.0000 C   0  0  0  0  0  0  0  0  0  0  0  0
    2.2562    0.4776    0.0000 N   0  0  0  0  0  0  0  0  0  0  0  0
    2.2562    1.3026    0.0000 C   0  0  0  0  0  0  0  0  0  0  0  0
    2.9707    0.0651    0.0000 C   0  0  0  0  0  0  0  0  0  0  0  0
    8.1564   -0.0000    0.0000 O   0  0  0  0  0  0  0  0  0  0  0  0
    7.3314    0.0000    0.0000 C   0  0  0  0  0  0  0  0  0  0  0  0
    6.9189   -0.7145    0.0000 O   0  0  0  0  0  0  0  0  0  0  0  0
    6.9189    0.7145    0.0000 C   0  0  0  0  0  0  0  0  0  0  0  0
    6.0939    0.7145    0.0000 C   0  0  0  0  0  0  0  0  0  0  0  0
    5.6814    0.0000    0.0000 C   0  0  0  0  0  0  0  0  0  0  0  0
    6.0939   -0.7145    0.0000 O   0  0  0  0  0  0  0  0  0  0  0  0
    4.8564    0.0000    0.0000 O   0  0  0  0  0  0  0  0  0  0  0  0
  1  2  1  0  0  0  0
  2  3  2  0  0  0  0
  3  4  1  0  0  0  0
  4  5  2  0  0  0  0
  5  6  1  0  0  0  0
  5  7  1  0  0  0  0
  7  8  2  0  0  0  0
  2  8  1  0  0  0  0
  1  9  1  0  0  0  0
  9 10  2  0  0  0  0
 10 11  1  0  0  0  0
 11 12  2  0  0  0  0
 12 13  1  0  0  0  0
 13 14  2  0  0  0  0
  9 14  1  0  0  0  0
  1 15  1  6  0  0  0
 15 16  1  0  0  0  0
 16 17  1  0  0  0  0
 17 18  1  0  0  0  0
 17 19  1  0  0  0  0
 20 21  2  0  0  0  0
 21 22  1  0  0  0  0
 21 23  1  0  0  0  0
 23 24  2  0  0  0  0
 24 25  1  0  0  0  0
 25 26  2  0  0  0  0
 25 27  1  0  0  0  0
M  END
>  <Name>
Dexchlorpheniramine Maleate

>  <CAS>
2438-32-6

>  <Formula>
C20H23ClN2O4

>  <MolWt>
390.86 

>  <Bioactivity>
Dexchlorpheniramine (trade name Polaramine) is an antihistamine with anticholinergic properties used to treat allergic conditions such as hay fever or urticaria. It is the pharmacologically active dextrorotatory isomer of chlorpheniramine. 

>  <Pathways>
Neuroscience

>  <Target>
Dopamine uptake inhibitor;Histamine Receptor antagonist;Noradrenaline uptake inhibitor;Serotonin uptake inhibitor

>  <Receptor>
Sodium-dependent dopamine transporter;Histamine H1 receptor;Sodium-dependent noradrenaline transporter;Sodium-dependent serotonin transporter

>  <Reference>
1. Tagawa M, et al. Br J Clin Pharmacol. 2001 Nov;52(5):501-9.

$$$$
606-04-2
  Mrv1561503291623562D          

 20 20  0  0  0  0            999 V2000
    0.3524   -1.6500    0.0000 C   0  0  0  0  0  0  0  0  0  0  0  0
    0.3524   -0.8250    0.0000 N   0  0  0  0  0  0  0  0  0  0  0  0
   -0.3621   -0.4125    0.0000 C   0  0  0  0  0  0  0  0  0  0  0  0
   -0.3621    0.4125    0.0000 C   0  0  0  0  0  0  0  0  0  0  0  0
    0.3524    0.8250    0.0000 C   0  0  0  0  0  0  0  0  0  0  0  0
    1.0669    0.4125    0.0000 N   0  0  0  0  0  0  0  0  0  0  0  0
    1.7813    0.8250    0.0000 C   0  0  0  0  0  0  0  0  0  0  0  0
    1.0669   -0.4125    0.0000 C   0  0  0  0  0  0  0  0  0  0  0  0
    1.7813   -0.8250    0.0000 O   0  0  0  0  0  0  0  0  0  0  0  0
    0.3524    1.6500    0.0000 O   0  0  0  0  0  0  0  0  0  0  0  0
   -1.1467    0.6674    0.0000 N   0  0  0  0  0  0  0  0  0  0  0  0
   -1.6316    0.0000    0.0000 C   0  0  0  0  0  0  0  0  0  0  0  0
   -1.1467   -0.6674    0.0000 N   0  0  0  0  0  0  0  0  0  0  0  0
   -2.4566    0.0000    0.0000 Br  0  0  0  0  0  0  0  0  0  0  0  0
    4.4920    0.5954    0.0000 C   0  0  0  0  0  0  0  0  0  0  0  0
    4.9045   -0.1191    0.0000 C   0  0  0  0  0  0  0  0  0  0  0  0
    5.3170   -0.8335    0.0000 C   0  0  0  0  0  0  0  0  0  0  0  0
    5.6190    0.2934    0.0000 C   0  0  0  0  0  0  0  0  0  0  0  0
    4.1901   -0.5316    0.0000 N   0  0  0  0  0  0  0  0  0  0  0  0
    3.6670    0.5954    0.0000 O   0  0  0  0  0  0  0  0  0  0  0  0
  1  2  1  0  0  0  0
  2  3  1  0  0  0  0
  3  4  2  0  0  0  0
  4  5  1  0  0  0  0
  5  6  1  0  0  0  0
  6  7  1  0  0  0  0
  6  8  1  0  0  0  0
  2  8  1  0  0  0  0
  8  9  2  0  0  0  0
  5 10  2  0  0  0  0
  4 11  1  0  0  0  0
 11 12  1  0  0  0  0
 12 13  2  0  0  0  0
  3 13  1  0  0  0  0
 12 14  1  0  0  0  0
 15 16  1  0  0  0  0
 16 17  1  0  0  0  0
 16 18  1  0  0  0  0
 16 19  1  0  0  0  0
 15 20  1  0  0  0  0
M  END
>  <Name>
Pamabrom

>  <CAS>
606-04-2

>  <Formula>
C11H18BrN5O3

>  <MolWt>
348.20 

>  <Bioactivity>
Pamabron is a common over-the-counter diuretic used for relief of menstrual-associated symptoms. The active diuretic ingredient in pamabrom is 8-bromotheophylline. Pamabrom is available in combination with acetaminophen (paracetamol) for various conditions such as back pain and menstrual relief. The acetaminophen helps reduce menstrual pains and the pamabrom reduces associated bloating.

>  <Pathways>
Others

>  <Target>
Others

>  <Receptor>
Others

>  <Reference>
1. Min JA, et al. Clin Exp Dermatol. 2009 Oct;34(7):e455-6.

$$$$
T1679
  Mrv1561503291623562D          

114123  0  0  0  0            999 V2000
    6.4178   -0.4436    0.0000 C   0  0  0  0  0  0  0  0  0  0  0  0
    7.0470   -0.9772    0.0000 C   0  0  0  0  0  0  0  0  0  0  0  0
    6.6204   -1.7111    0.0000 C   0  0  0  0  0  0  0  0  0  0  0  0
    7.3772   -2.0764    0.0000 C   0  0  0  0  0  0  0  0  0  0  0  0
    7.2633   -2.9811    0.0000 S   0  0  0  0  0  0  0  0  0  0  0  0
    6.4760   -3.1001    0.0000 C   0  0  0  0  0  0  0  0  0  0  0  0
    6.0607   -2.4109    0.0000 N   0  0  0  0  0  0  0  0  0  0  0  0
    6.7678   -2.2810    0.0000 C   0  0  0  0  0  0  0  0  0  0  0  0
    7.7628   -2.4976    0.0000 N   0  0  0  0  0  0  0  0  0  0  0  0
    8.6462   -2.3345    0.0000 C   0  0  0  0  0  0  0  0  0  0  0  0
    9.5273   -2.2419    0.0000 C   0  0  0  0  0  0  0  0  0  0  0  0
    9.9684   -2.9561    0.0000 C   0  0  0  0  0  0  0  0  0  0  0  0
   10.7709   -2.7247    0.0000 S   0  0  0  0  0  0  0  0  0  0  0  0
   10.8786   -1.9047    0.0000 C   0  0  0  0  0  0  0  0  0  0  0  0
   10.0725   -1.6082    0.0000 N   0  0  0  0  0  0  0  0  0  0  0  0
   11.5764   -1.4043    0.0000 C   0  0  0  0  0  0  0  0  0  0  0  0
   12.0956   -0.7580    0.0000 N   0  0  0  0  0  0  0  0  0  0  0  0
   12.4452    0.0253    0.0000 C   0  0  0  0  0  0  0  0  0  0  0  0
   13.3197    0.0462    0.0000 O   0  0  0  0  0  0  0  0  0  0  0  0
   12.5590    0.8363    0.0000 C   0  0  0  0  0  0  0  0  0  0  0  0
   11.7921    1.1912    0.0000 N   0  0  0  0  0  0  0  0  0  0  0  0
   11.8871    2.0217    0.0000 C   0  0  0  0  0  0  0  0  0  0  0  0
   11.2499    2.5981    0.0000 C   0  0  0  0  0  0  0  0  0  0  0  0
   10.5406    3.0433    0.0000 N   0  0  0  0  0  0  0  0  0  0  0  0
    9.7167    3.2142    0.0000 C   0  0  0  0  0  0  0  0  0  0  0  0
    8.9977    2.7850    0.0000 C   0  0  0  0  0  0  0  0  0  0  0  0
    8.4637    2.1378    0.0000 N   0  0  0  0  0  0  0  0  0  0  0  0
    7.6552    1.8761    0.0000 C   0  0  0  0  0  0  0  0  0  0  0  0
    6.7254    1.6494    0.0000 C   0  0  0  0  0  0  0  0  0  0  0  0
    5.8814    1.7179    0.0000 C   0  0  0  0  0  0  0  0  0  0  0  0
    5.4635    0.8807    0.0000 S   0  0  0  0  0  0  0  0  0  0  0  0
    6.1564    0.3564    0.0000 C   0  0  0  0  0  0  0  0  0  0  0  0
    6.9606    0.7988    0.0000 N   0  0  0  0  0  0  0  0  0  0  0  0
    8.1256    1.0429    0.0000 O   0  0  0  0  0  0  0  0  0  0  0  0
    9.2416    3.6768    0.0000 C   0  0  0  0  0  0  0  0  0  0  0  0
    8.4866    3.5571    0.0000 C   0  0  0  0  0  0  0  0  0  0  0  0
    9.4146    4.5650    0.0000 O   0  0  0  0  0  0  0  0  0  0  0  0
   10.1594    3.9728    0.0000 O   0  0  0  0  0  0  0  0  0  0  0  0
   11.8746    3.2547    0.0000 C   0  0  0  0  0  0  0  0  0  0  0  0
   12.6825    3.6059    0.0000 C   0  0  0  0  0  0  0  0  0  0  0  0
   12.7192    2.1654    0.0000 S   0  0  0  0  0  0  0  0  0  0  0  0
   13.1397    1.4494    0.0000 C   0  0  0  0  0  0  0  0  0  0  0  0
   12.1453   -2.1477    0.0000 C   0  0  0  0  0  0  0  0  0  0  0  0
   12.7929   -2.8213    0.0000 C   0  0  0  0  0  0  0  0  0  0  0  0
   12.8397   -3.6391    0.0000 C   0  0  0  0  0  0  0  0  0  0  0  0
   13.6268   -2.9159    0.0000 O   0  0  0  0  0  0  0  0  0  0  0  0
   12.9879   -1.8539    0.0000 C   0  0  0  0  0  0  0  0  0  0  0  0
   11.5541   -2.7841    0.0000 O   0  0  0  0  0  0  0  0  0  0  0  0
    8.9115   -1.5202    0.0000 O   0  0  0  0  0  0  0  0  0  0  0  0
    5.8639   -1.6889    0.0000 C   0  0  0  0  0  0  0  0  0  0  0  0
    5.1972   -0.9477    0.0000 O   0  0  0  0  0  0  0  0  0  0  0  0
    4.6374   -0.2210    0.0000 C   0  0  0  0  0  0  0  0  0  0  0  0
    4.2835    0.6684    0.0000 C   0  0  0  0  0  0  0  0  0  0  0  0
    3.4391    0.8639    0.0000 C   0  0  0  0  0  0  0  0  0  0  0  0
    3.0686    1.6309    0.0000 C   0  0  0  0  0  0  0  0  0  0  0  0
    3.5277    2.3378    0.0000 C   0  0  0  0  0  0  0  0  0  0  0  0
    4.3580    2.2409    0.0000 C   0  0  0  0  0  0  0  0  0  0  0  0
    4.6629    1.4549    0.0000 N   0  0  0  0  0  0  0  0  0  0  0  0
    4.8730    2.9132    0.0000 C   0  0  0  0  0  0  0  0  0  0  0  0
    4.5788    3.7054    0.0000 C   0  0  0  0  0  0  0  0  0  0  0  0
    4.8272    4.5376    0.0000 N   0  0  0  0  0  0  0  0  0  0  0  0
    5.1184    5.3415    0.0000 C   0  0  0  0  0  0  0  0  0  0  0  0
    5.5654    6.0709    0.0000 C   0  0  0  0  0  0  0  0  0  0  0  0
    6.4071    6.0666    0.0000 N   0  0  0  0  0  0  0  0  0  0  0  0
    7.0135    5.4844    0.0000 C   0  0  0  0  0  0  0  0  0  0  0  0
    7.7759    5.1270    0.0000 C   0  0  0  0  0  0  0  0  0  0  0  0
    7.7997    4.2969    0.0000 N   0  0  0  0  0  0  0  0  0  0  0  0
    7.1155    3.8367    0.0000 C   0  0  0  0  0  0  0  0  0  0  0  0
    6.7055    3.1135    0.0000 C   0  0  0  0  0  0  0  0  0  0  0  0
    7.0018    2.3349    0.0000 N   0  0  0  0  0  0  0  0  0  0  0  0
    7.2254    1.4358    0.0000 C   0  0  0  0  0  0  0  0  0  0  0  0
    6.4724    0.9431    0.0000 C   0  0  0  0  0  0  0  0  0  0  0  0
    6.9364    0.1717    0.0000 N   0  0  0  0  0  0  0  0  0  0  0  0
    5.7289    1.3126    0.0000 O   0  0  0  0  0  0  0  0  0  0  0  0
    8.2176    1.5901    0.0000 C   0  0  0  0  0  0  0  0  0  0  0  0
    6.2578    3.7960    0.0000 O   0  0  0  0  0  0  0  0  0  0  0  0
    6.5479    4.4433    0.0000 C   0  0  0  0  0  0  0  0  0  0  0  0
    8.1687    5.9072    0.0000 O   0  0  0  0  0  0  0  0  0  0  0  0
    6.5418    4.9792    0.0000 C   0  0  0  0  0  0  0  0  0  0  0  0
    5.5313    6.9343    0.0000 O   0  0  0  0  0  0  0  0  0  0  0  0
    4.3781    5.9052    0.0000 C   0  0  0  0  0  0  0  0  0  0  0  0
    3.9665    6.6995    0.0000 C   0  0  0  0  0  0  0  0  0  0  0  0
    3.1766    7.0273    0.0000 C   0  0  0  0  0  0  0  0  0  0  0  0
    3.5188    5.7576    0.0000 C   0  0  0  0  0  0  0  0  0  0  0  0
    3.7498    3.7858    0.0000 C   0  0  0  0  0  0  0  0  0  0  0  0
    3.2316    3.1374    0.0000 C   0  0  0  0  0  0  0  0  0  0  0  0
    5.2074    3.5659    0.0000 O   0  0  0  0  0  0  0  0  0  0  0  0
    2.1796    1.6376    0.0000 C   0  0  0  0  0  0  0  0  0  0  0  0
    1.5340    2.2096    0.0000 C   0  0  0  0  0  0  0  0  0  0  0  0
    1.5559    1.0474    0.0000 O   0  0  0  0  0  0  0  0  0  0  0  0
    3.7712   -0.3935    0.0000 O   0  0  0  0  0  0  0  0  0  0  0  0
    5.2183   -2.5649    0.0000 C   0  0  0  0  0  0  0  0  0  0  0  0
    6.8994   -1.7889    0.0000 N   0  0  0  0  0  0  0  0  0  0  0  0
    6.1227   -2.0670    0.0000 C   0  0  0  0  0  0  0  0  0  0  0  0
    5.9752   -2.8787    0.0000 C   0  0  0  0  0  0  0  0  0  0  0  0
    5.2318   -3.2364    0.0000 N   0  0  0  0  0  0  0  0  0  0  0  0
    5.3423   -4.0540    0.0000 C   0  0  0  0  0  0  0  0  0  0  0  0
    6.1540   -4.2015    0.0000 C   0  0  0  0  0  0  0  0  0  0  0  0
    6.5451   -3.4752    0.0000 S   0  0  0  0  0  0  0  0  0  0  0  0
    4.7569   -4.7057    0.0000 C   0  0  0  0  0  0  0  0  0  0  0  0
    3.9202   -4.5022    0.0000 N   0  0  0  0  0  0  0  0  0  0  0  0
    3.2550   -5.0059    0.0000 C   0  0  0  0  0  0  0  0  0  0  0  0
    2.4357   -4.8530    0.0000 C   0  0  0  0  0  0  0  0  0  0  0  0
    1.8315   -5.4241    0.0000 N   0  0  0  0  0  0  0  0  0  0  0  0
    1.0417   -5.1515    0.0000 C   0  0  0  0  0  0  0  0  0  0  0  0
    0.3437   -5.5987    0.0000 C   0  0  0  0  0  0  0  0  0  0  0  0
   -0.3891   -5.2197    0.0000 N   0  0  0  0  0  0  0  0  0  0  0  0
    0.3817   -6.4229    0.0000 O   0  0  0  0  0  0  0  0  0  0  0  0
    1.0036   -4.3274    0.0000 C   0  0  0  0  0  0  0  0  0  0  0  0
    2.2447   -4.0504    0.0000 O   0  0  0  0  0  0  0  0  0  0  0  0
    3.5295   -5.7839    0.0000 C   0  0  0  0  0  0  0  0  0  0  0  0
    4.8771   -5.5815    0.0000 O   0  0  0  0  0  0  0  0  0  0  0  0
    5.4935   -1.5334    0.0000 C   0  0  0  0  0  0  0  0  0  0  0  0
    5.6411   -0.7217    0.0000 C   0  0  0  0  0  0  0  0  0  0  0  0
  1  2  1  0  0  0  0
  2  3  1  0  0  0  0
  3  4  2  0  0  0  0
  4  5  1  0  0  0  0
  5  6  1  0  0  0  0
  6  7  2  0  0  0  0
  3  7  1  0  0  0  0
  6  8  1  0  0  0  0
  8  9  1  0  0  0  0
  9 10  1  0  0  0  0
 10 11  1  0  0  0  0
 11 12  2  0  0  0  0
 12 13  1  0  0  0  0
 13 14  1  0  0  0  0
 14 15  2  0  0  0  0
 11 15  1  0  0  0  0
 14 16  1  0  0  0  0
 16 17  1  0  0  0  0
 17 18  1  0  0  0  0
 18 19  2  0  0  0  0
 18 20  1  0  0  0  0
 20 21  1  0  0  0  0
 21 22  2  0  0  0  0
 22 23  1  0  0  0  0
 23 24  1  0  0  0  0
 24 25  1  0  0  0  0
 25 26  1  0  0  0  0
 26 27  1  0  0  0  0
 27 28  1  0  0  0  0
 28 29  1  0  0  0  0
 29 30  2  0  0  0  0
 30 31  1  0  0  0  0
 31 32  1  0  0  0  0
  1 32  1  0  0  0  0
 32 33  2  0  0  0  0
 29 33  1  0  0  0  0
 28 34  2  0  0  0  0
 26 35  1  0  0  0  0
 35 36  1  0  0  0  0
 35 37  1  0  0  0  0
 25 38  2  0  0  0  0
 23 39  2  0  0  0  0
 39 40  1  0  0  0  0
 22 41  1  0  0  0  0
 41 42  1  0  0  0  0
 20 42  1  0  0  0  0
 16 43  1  0  0  0  0
 43 44  1  0  0  0  0
 44 45  1  0  0  0  0
 44 46  1  0  0  0  0
 43 47  1  0  0  0  0
 43 48  1  0  0  0  0
 10 49  2  0  0  0  0
  8 50  1  0  0  0  0
 50 51  1  0  0  0  0
 51 52  1  0  0  0  0
 52 53  1  0  0  0  0
 53 54  2  0  0  0  0
 54 55  1  0  0  0  0
 55 56  2  0  0  0  0
 56 57  1  0  0  0  0
 57 58  2  0  0  0  0
 53 58  1  0  0  0  0
 57 59  1  0  0  0  0
 59 60  1  0  0  0  0
 60 61  1  0  0  0  0
 61 62  1  0  0  0  0
 62 63  1  0  0  0  0
 63 64  1  0  0  0  0
 64 65  1  0  0  0  0
 65 66  1  0  0  0  0
 66 67  1  0  0  0  0
 67 68  1  0  0  0  0
 68 69  1  0  0  0  0
 69 70  1  0  0  0  0
 70 71  1  0  0  0  0
 71 72  1  0  0  0  0
 72 73  1  0  0  0  0
  1 73  1  0  0  0  0
 72 74  2  0  0  0  0
 71 75  1  0  0  0  0
 69 76  2  0  0  0  0
 68 77  2  0  0  0  0
 66 78  2  0  0  0  0
 65 79  1  0  0  0  0
 63 80  2  0  0  0  0
 62 81  1  0  0  0  0
 81 82  1  0  0  0  0
 82 83  1  0  0  0  0
 81 84  1  0  0  0  0
 60 85  1  0  0  0  0
 85 86  2  0  0  0  0
 56 86  1  0  0  0  0
 59 87  1  0  0  0  0
 55 88  1  0  0  0  0
 88 89  1  0  0  0  0
 88 90  1  0  0  0  0
 52 91  2  0  0  0  0
 50 92  1  0  0  0  0
  2 93  1  0  0  0  0
 93 94  2  0  0  0  0
 94 95  1  0  0  0  0
 95 96  2  0  0  0  0
 96 97  1  0  0  0  0
 97 98  2  0  0  0  0
 98 99  1  0  0  0  0
 95 99  1  0  0  0  0
 97100  1  0  0  0  0
100101  1  0  0  0  0
101102  1  0  0  0  0
102103  1  0  0  0  0
103104  1  0  0  0  0
104105  1  0  0  0  0
105106  1  0  0  0  0
106107  1  0  0  0  0
106108  2  0  0  0  0
105109  2  0  0  0  0
103110  2  0  0  0  0
102111  2  0  0  0  0
100112  2  0  0  0  0
 94113  1  0  0  0  0
113114  1  0  0  0  0
  1114  1  0  0  0  0
M  END
>  <Name>
Thiostrepton

>  <CAS>
1393-48-2

>  <Formula>
C72H85N19O18S5

>  <MolWt>
1664.89 

>  <Bioactivity>
Thiostrepton is a one of the CYCLIC PEPTIDES from Streptomyces that is active against gram-positive bacteria. In veterinary medicine, it has been used in mastitis caused by gram-negative organisms and in dermatologic disorders.


>  <Pathways>
DNA Damage/DNA Repair;Microbiology & Virology

>  <Target>
Antibiotic; DNA/RNA Synthesis inhibitor

>  <Receptor>
DNA synthesis

>  <Reference>
1. Kuiper EG, Conn GL. J Biol Chem. 2014 Sep 19;289(38):26189-200.

$$$$
10347-81-6
  Mrv1561503291623562D          

 23 24  0  0  0  0            999 V2000
    0.4125    0.0000    0.0000 H   0  3  0  0  0  0  0  0  0  0  0  0
    5.8706   -0.1571    0.0000 C   0  0  0  0  0  0  0  0  0  0  0  0
    5.1561    0.2554    0.0000 C   0  0  0  0  0  0  0  0  0  0  0  0
    4.4416   -0.1571    0.0000 C   0  0  0  0  0  0  0  0  0  0  0  0
    4.3041    0.3929    0.0000 C   0  0  0  0  0  0  0  0  0  0  0  0
    4.3041    0.9429    0.0000 C   0  0  0  0  0  0  0  0  0  0  0  0
    4.4416    1.4929    0.0000 C   0  0  0  0  0  0  0  0  0  0  0  0
    5.1561    1.0804    0.0000 C   0  0  0  0  0  0  0  0  0  0  0  0
    5.8706    1.4929    0.0000 C   0  0  0  0  0  0  0  0  0  0  0  0
    6.5850    1.0804    0.0000 C   0  0  0  0  0  0  0  0  0  0  0  0
    6.5850    0.2554    0.0000 C   0  0  0  0  0  0  0  0  0  0  0  0
    3.7272    1.0804    0.0000 C   0  0  0  0  0  0  0  0  0  0  0  0
    3.0127    1.4929    0.0000 C   0  0  0  0  0  0  0  0  0  0  0  0
    2.2982    1.0804    0.0000 C   0  0  0  0  0  0  0  0  0  0  0  0
    2.2982    0.2554    0.0000 C   0  0  0  0  0  0  0  0  0  0  0  0
    3.0127   -0.1571    0.0000 C   0  0  0  0  0  0  0  0  0  0  0  0
    3.7272    0.2554    0.0000 C   0  0  0  0  0  0  0  0  0  0  0  0
    4.4416   -0.9821    0.0000 C   0  0  0  0  0  0  0  0  0  0  0  0
    3.7272   -1.3946    0.0000 C   0  0  0  0  0  0  0  0  0  0  0  0
    3.7272   -2.2196    0.0000 C   0  0  0  0  0  0  0  0  0  0  0  0
    3.0127   -2.6321    0.0000 N   0  0  0  0  0  0  0  0  0  0  0  0
    3.0127   -3.4571    0.0000 C   0  0  0  0  0  0  0  0  0  0  0  0
   -0.4125    0.0000    0.0000 Cl  0  5  0  0  0  0  0  0  0  0  0  0
  2  3  2  0  0  0  0
  3  4  1  0  0  0  0
  4  5  1  0  0  0  0
  5  6  1  0  0  0  0
  6  7  1  0  0  0  0
  7  8  1  0  0  0  0
  3  8  1  0  0  0  0
  8  9  2  0  0  0  0
  9 10  1  0  0  0  0
 10 11  2  0  0  0  0
  2 11  1  0  0  0  0
  7 12  1  0  0  0  0
 12 13  2  0  0  0  0
 13 14  1  0  0  0  0
 14 15  2  0  0  0  0
 15 16  1  0  0  0  0
 16 17  2  0  0  0  0
  4 17  1  0  0  0  0
 12 17  1  0  0  0  0
  4 18  1  0  0  0  0
 18 19  1  0  0  0  0
 19 20  1  0  0  0  0
 20 21  1  0  0  0  0
 21 22  1  0  0  0  0
M  CHG  2   1   1  23  -1
M  END
>  <Name>
Maprotiline HCl

>  <CAS>
10347-81-6

>  <Formula>
C20H24ClN

>  <MolWt>
313.86 

>  <Bioactivity>
Maprotiline is a tetracyclic antidepressant with similar pharmacological properties to tricyclic antidepressants (TCAs). Similar to TCAs, maprotiline inhibits neuronal norepinephrine reuptake, possesses some anticholinergic activity, and does not affect monoamine oxidase activity. It differs from TCAs in that it does not appear to block serotonin reuptake. Maprotiline may be used to treat depressive affective disorders, including dysthymic disorder (depressive neurosis) and major depressive disorder. Maprotiline is effective at reducing symptoms of anxiety associated with depression.

>  <Pathways>
Neuroscience;GPCR/G protein

>  <Target>
AChR antagonist;Adrenergic Receptor antagonist;Histamine antagonist;Noradrenaline uptake inhibitor;5-HT receptor antagonist

>  <Receptor>
Muscarinic AChR;Adrenergic receptor ;Histamine H1 receptor;Sodium-dependent noradrenaline transporter;5-HT receptor

>  <Reference>
1. Buckley NA, McManus PR. Drug Saf. 1998 May;18(5):369-81.

$$$$
51-56-9
  Mrv1561503291623562D          

 22 22  0  0  1  0            999 V2000
   -1.3914    1.9986    0.0000 C   0  0  0  0  0  0  0  0  0  0  0  0
   -1.6231    1.0717    0.0000 N   0  0  0  0  0  0  0  0  0  0  0  0
   -1.3914    0.1448    0.0000 C   0  0  0  0  0  0  0  0  0  0  0  0
   -2.0364    0.6592    0.0000 C   0  0  0  0  0  0  0  0  0  0  0  0
   -2.0364    1.4842    0.0000 C   0  0  0  0  0  0  0  0  0  0  0  0
   -0.5871    0.3284    0.0000 C   0  0  0  0  0  0  0  0  0  0  0  0
   -0.2291    1.0717    0.0000 C   0  0  0  0  0  0  0  0  0  0  0  0
    0.5959    1.0717    0.0000 O   0  0  0  0  0  0  0  0  0  0  0  0
    1.0084    0.3572    0.0000 C   0  0  0  0  0  0  0  0  0  0  0  0
    1.8334    0.3572    0.0000 O   0  0  0  0  0  0  0  0  0  0  0  0
    0.5959   -0.3572    0.0000 C   0  0  0  0  0  0  0  0  0  0  0  0
   -0.2291   -0.3572    0.0000 O   0  0  0  0  0  0  0  0  0  0  0  0
    1.0084   -1.0717    0.0000 C   0  0  0  0  0  0  0  0  0  0  0  0
    1.8334   -1.0717    0.0000 C   0  0  0  0  0  0  0  0  0  0  0  0
    2.2459   -1.7862    0.0000 C   0  0  0  0  0  0  0  0  0  0  0  0
    1.8334   -2.5006    0.0000 C   0  0  0  0  0  0  0  0  0  0  0  0
    1.0084   -2.5006    0.0000 C   0  0  0  0  0  0  0  0  0  0  0  0
    0.5959   -1.7862    0.0000 C   0  0  0  0  0  0  0  0  0  0  0  0
   -0.5871    1.8150    0.0000 C   0  0  0  0  0  0  0  0  0  0  0  0
   -2.4481    1.0717    0.0000 C   0  0  0  0  0  0  0  0  0  0  0  0
    5.4280    0.0000    0.0000 H   0  3  0  0  0  0  0  0  0  0  0  0
    4.6030    0.0000    0.0000 Br  0  5  0  0  0  0  0  0  0  0  0  0
  1  2  1  0  0  0  0
  2  3  1  0  0  0  0
  3  4  1  0  0  0  0
  4  5  1  0  0  0  0
  1  5  1  0  0  0  0
  3  6  1  0  0  0  0
  6  7  1  0  0  0  0
  7  8  1  0  0  0  0
  8  9  1  0  0  0  0
  9 10  2  0  0  0  0
  9 11  1  0  0  0  0
 11 12  1  0  0  0  0
 11 13  1  0  0  0  0
 13 14  2  0  0  0  0
 14 15  1  0  0  0  0
 15 16  2  0  0  0  0
 16 17  1  0  0  0  0
 17 18  2  0  0  0  0
 13 18  1  0  0  0  0
  7 19  1  0  0  0  0
  1 19  1  0  0  0  0
  2 20  1  0  0  0  0
M  CHG  2  21   1  22  -1
M  END
>  <Name>
Homatropine Bromide

>  <CAS>
51-56-9

>  <Formula>
C16H22BrNO3

>  <MolWt>
356.26 

>  <Bioactivity>
Homatropine Bromide is muscarinic AChR antagonist, inhibits endothelial and smooth muscle muscarinic receptors.

>  <Pathways>
Neuroscience

>  <Target>
AChR antagonist

>  <Receptor>
Muscarinic AChR

>  <Reference>
1. Sim MK, et al. Clin Exp Hypertens, 1993, 15(2), 409-421.

$$$$
3737-09-5
  Mrv1561503291623562D          

 25 26  0  0  0  0            999 V2000
    3.0789   -0.8250    0.0000 C   0  0  0  0  0  0  0  0  0  0  0  0
    3.0789   -1.6500    0.0000 C   0  0  0  0  0  0  0  0  0  0  0  0
    2.3645   -2.0625    0.0000 C   0  0  0  0  0  0  0  0  0  0  0  0
    1.6500   -1.6500    0.0000 C   0  0  0  0  0  0  0  0  0  0  0  0
    1.6500   -0.8250    0.0000 C   0  0  0  0  0  0  0  0  0  0  0  0
    2.3645   -0.4125    0.0000 C   0  0  0  0  0  0  0  0  0  0  0  0
    2.3645    0.4125    0.0000 C   0  0  0  0  0  0  0  0  0  0  0  0
    3.1895    0.4125    0.0000 C   0  0  0  0  0  0  0  0  0  0  0  0
    3.6020    1.1270    0.0000 C   0  0  0  0  0  0  0  0  0  0  0  0
    4.4270    1.1270    0.0000 C   0  0  0  0  0  0  0  0  0  0  0  0
    4.8395    0.4125    0.0000 C   0  0  0  0  0  0  0  0  0  0  0  0
    4.4270   -0.3020    0.0000 C   0  0  0  0  0  0  0  0  0  0  0  0
    3.6020   -0.3020    0.0000 N   0  0  0  0  0  0  0  0  0  0  0  0
    2.3645    1.2375    0.0000 C   0  0  0  0  0  0  0  0  0  0  0  0
    3.0789    1.6500    0.0000 C   0  0  0  0  0  0  0  0  0  0  0  0
    3.0789    2.4750    0.0000 N   0  0  0  0  0  0  0  0  0  0  0  0
    3.7934    2.8875    0.0000 C   0  0  0  0  0  0  0  0  0  0  0  0
    3.7934    3.7125    0.0000 C   0  0  0  0  0  0  0  0  0  0  0  0
    4.5079    2.4750    0.0000 C   0  0  0  0  0  0  0  0  0  0  0  0
    2.3645    2.8875    0.0000 C   0  0  0  0  0  0  0  0  0  0  0  0
    2.3645    3.7125    0.0000 C   0  0  0  0  0  0  0  0  0  0  0  0
    1.6500    2.4750    0.0000 C   0  0  0  0  0  0  0  0  0  0  0  0
    1.5395    0.4125    0.0000 C   0  0  0  0  0  0  0  0  0  0  0  0
    1.1270    1.1270    0.0000 N   0  0  0  0  0  0  0  0  0  0  0  0
    1.1270   -0.3020    0.0000 O   0  0  0  0  0  0  0  0  0  0  0  0
  1  2  2  0  0  0  0
  2  3  1  0  0  0  0
  3  4  2  0  0  0  0
  4  5  1  0  0  0  0
  5  6  2  0  0  0  0
  1  6  1  0  0  0  0
  6  7  1  0  0  0  0
  7  8  1  0  0  0  0
  8  9  2  0  0  0  0
  9 10  1  0  0  0  0
 10 11  2  0  0  0  0
 11 12  1  0  0  0  0
 12 13  2  0  0  0  0
  8 13  1  0  0  0  0
  7 14  1  0  0  0  0
 14 15  1  0  0  0  0
 15 16  1  0  0  0  0
 16 17  1  0  0  0  0
 17 18  1  0  0  0  0
 17 19  1  0  0  0  0
 16 20  1  0  0  0  0
 20 21  1  0  0  0  0
 20 22  1  0  0  0  0
  7 23  1  0  0  0  0
 23 24  1  0  0  0  0
 23 25  2  0  0  0  0
M  END
>  <Name>
Disopyramide

>  <CAS>
3737-09-5

>  <Formula>
C21H29N3O

>  <MolWt>
339.47 

>  <Bioactivity>
A class I anti-arrhythmic agent (one that interferes directly with the depolarization of the cardiac membrane and thus serves as a membrane-stabilizing agent) with a depressant action on the heart similar to that of guanidine. It also possesses some anticholinergic and local anesthetic properties. 

>  <Pathways>
Membrane Transporter/Ion Channel; Neuroscience

>  <Target>
Potassium Channel inhibitor;Sodium Channel inhibitor;AChR antagonist

>  <Receptor>
Potassium Channel ;Sodium channel ;Muscarinic AChR

>  <Reference>
1. Sugao M, et al. J Cardiovasc Pharmacol. 2005 Jun;45(6):545-9.

$$$$
177834-92-3
  Mrv1561503291623562D          

 29 30  0  0  1  0            999 V2000
   -2.7336    0.2703    0.0000 C   0  0  0  0  0  0  0  0  0  0  0  0
   -3.3467   -0.2817    0.0000 N   0  0  0  0  0  0  0  0  0  0  0  0
   -4.0612    0.1308    0.0000 C   0  0  0  0  0  0  0  0  0  0  0  0
   -3.8897    0.9378    0.0000 C   0  0  0  0  0  0  0  0  0  0  0  0
   -3.0692    1.0240    0.0000 C   0  0  0  0  0  0  0  0  0  0  0  0
   -3.2605   -1.1022    0.0000 C   0  0  0  0  0  0  0  0  0  0  0  0
   -1.9267    0.0988    0.0000 C   0  0  0  0  0  0  0  0  0  0  0  0
   -1.6717   -0.6858    0.0000 C   0  0  0  0  0  0  0  0  0  0  0  0
   -2.1566   -1.3533    0.0000 C   0  0  0  0  0  0  0  0  0  0  0  0
   -1.6717   -2.0207    0.0000 N   0  0  0  0  0  0  0  0  0  0  0  0
   -0.8871   -1.7658    0.0000 C   0  0  0  0  0  0  0  0  0  0  0  0
   -0.8871   -0.9408    0.0000 C   0  0  0  0  0  0  0  0  0  0  0  0
   -0.1726   -0.5283    0.0000 C   0  0  0  0  0  0  0  0  0  0  0  0
    0.5418   -0.9408    0.0000 C   0  0  0  0  0  0  0  0  0  0  0  0
    0.5418   -1.7658    0.0000 C   0  0  0  0  0  0  0  0  0  0  0  0
   -0.1726   -2.1783    0.0000 C   0  0  0  0  0  0  0  0  0  0  0  0
    1.2563   -0.5283    0.0000 C   0  0  0  0  0  0  0  0  0  0  0  0
    1.2563    0.2967    0.0000 C   0  0  0  0  0  0  0  0  0  0  0  0
    1.9708    0.7092    0.0000 S   0  0  0  0  0  0  0  0  0  0  0  0
    2.3833   -0.0052    0.0000 O   0  0  0  0  0  0  0  0  0  0  0  0
    1.5583    1.4237    0.0000 O   0  0  0  0  0  0  0  0  0  0  0  0
    2.6853    1.1217    0.0000 C   0  0  0  0  0  0  0  0  0  0  0  0
    2.6853    1.9467    0.0000 C   0  0  0  0  0  0  0  0  0  0  0  0
    3.3997    2.3592    0.0000 C   0  0  0  0  0  0  0  0  0  0  0  0
    4.1142    1.9467    0.0000 C   0  0  0  0  0  0  0  0  0  0  0  0
    4.1142    1.1217    0.0000 C   0  0  0  0  0  0  0  0  0  0  0  0
    3.3997    0.7092    0.0000 C   0  0  0  0  0  0  0  0  0  0  0  0
    7.2963    0.0000    0.0000 H   0  3  0  0  0  0  0  0  0  0  0  0
    6.4713    0.0000    0.0000 Br  0  5  0  0  0  0  0  0  0  0  0  0
  1  2  1  0  0  0  0
  2  3  1  0  0  0  0
  3  4  1  0  0  0  0
  4  5  1  0  0  0  0
  1  5  1  0  0  0  0
  2  6  1  0  0  0  0
  1  7  1  0  0  0  0
  7  8  1  0  0  0  0
  8  9  2  0  0  0  0
  9 10  1  0  0  0  0
 10 11  1  0  0  0  0
 11 12  2  0  0  0  0
  8 12  1  0  0  0  0
 12 13  1  0  0  0  0
 13 14  2  0  0  0  0
 14 15  1  0  0  0  0
 15 16  2  0  0  0  0
 11 16  1  0  0  0  0
 14 17  1  0  0  0  0
 17 18  1  0  0  0  0
 18 19  1  0  0  0  0
 19 20  2  0  0  0  0
 19 21  2  0  0  0  0
 19 22  1  0  0  0  0
 22 23  2  0  0  0  0
 23 24  1  0  0  0  0
 24 25  2  0  0  0  0
 25 26  1  0  0  0  0
 26 27  2  0  0  0  0
 22 27  1  0  0  0  0
M  CHG  2  28   1  29  -1
M  END
>  <Name>
Eletriptan HBr

>  <CAS>
177834-92-3

>  <Formula>
C22H26N2O2S

>  <MolWt>
382.52 

>  <Bioactivity>
Eletriptan hydrobromide is a orally active, selective 5-HT1B/1D receptor agonist.

>  <Pathways>
Neuroscience

>  <Target>
5-HT Receptor agonist

>  <Receptor>
5-HT Receptor

>  <Reference>
1. Napier C, et al. Eur J Pharmacol. 1999 Mar 5;368(2-3):259-68. 

$$$$
T0270
  Mrv1561503291623562D          

 31 34  0  0  1  0            999 V2000
    4.7875    0.9666    0.0000 C   0  0  1  0  0  0  0  0  0  0  0  0
    3.9629    0.9934    0.0000 C   0  0  2  0  0  0  0  0  0  0  0  0
    3.6826    0.2174    0.0000 C   0  0  2  0  0  0  0  0  0  0  0  0
    2.8705    0.0722    0.0000 C   0  0  1  0  0  0  0  0  0  0  0  0
    2.3387    0.7029    0.0000 C   0  0  1  0  0  0  0  0  0  0  0  0
    1.5266    0.5577    0.0000 C   0  0  2  0  0  0  0  0  0  0  0  0
    1.2463   -0.2182    0.0000 C   0  0  0  0  0  0  0  0  0  0  0  0
    0.4342   -0.3634    0.0000 C   0  0  0  0  0  0  0  0  0  0  0  0
   -0.0976    0.2673    0.0000 C   0  0  0  0  0  0  0  0  0  0  0  0
   -0.9098    0.1221    0.0000 O   0  0  0  0  0  0  0  0  0  0  0  0
    0.1827    1.0432    0.0000 C   0  0  0  0  0  0  0  0  0  0  0  0
    0.9948    1.1884    0.0000 C   0  0  0  0  0  0  0  0  0  0  0  0
    1.7781   -0.8489    0.0000 C   0  0  0  0  0  0  0  0  0  0  0  0
    2.5902   -0.7037    0.0000 C   0  0  0  0  0  0  0  0  0  0  0  0
    1.8069    1.3336    0.0000 C   0  0  0  0  0  0  0  0  0  0  0  0
    2.6190    1.4789    0.0000 C   0  0  2  0  0  0  0  0  0  0  0  0
    3.4311    1.6241    0.0000 C   0  0  0  0  0  0  0  0  0  0  0  0
    2.0872    2.1096    0.0000 O   0  0  0  0  0  0  0  0  0  0  0  0
    4.3340   -0.2889    0.0000 C   0  0  0  0  0  0  0  0  0  0  0  0
    5.0168    0.1741    0.0000 C   0  0  0  0  0  0  0  0  0  0  0  0
    4.3228    1.7357    0.0000 C   0  0  0  0  0  0  0  0  0  0  0  0
    5.5484    1.2854    0.0000 O   0  0  0  0  0  0  0  0  0  0  0  0
    6.2050    0.7859    0.0000 C   0  0  0  0  0  0  0  0  0  0  0  0
    6.9659    1.1048    0.0000 C   0  0  0  0  0  0  0  0  0  0  0  0
    7.6225    0.6053    0.0000 C   0  0  0  0  0  0  0  0  0  0  0  0
    8.3834    0.9242    0.0000 C   0  0  0  0  0  0  0  0  0  0  0  0
    6.1007   -0.0325    0.0000 O   0  0  0  0  0  0  0  0  0  0  0  0
    4.9089    1.7826    0.0000 C   0  0  0  0  0  0  0  0  0  0  0  0
    5.6763    2.0854    0.0000 C   0  0  0  0  0  0  0  0  0  0  0  0
    6.3223    1.5723    0.0000 O   0  0  0  0  0  0  0  0  0  0  0  0
    4.2629    2.2957    0.0000 O   0  0  0  0  0  0  0  0  0  0  0  0
  1  2  1  0  0  0  0
  2  3  1  0  0  0  0
  3  4  1  0  0  0  0
  4  5  1  0  0  0  0
  5  6  1  0  0  0  0
  6  7  1  0  0  0  0
  7  8  2  0  0  0  0
  8  9  1  0  0  0  0
  9 10  2  0  0  0  0
  9 11  1  0  0  0  0
 11 12  1  0  0  0  0
  6 12  1  0  0  0  0
  7 13  1  0  0  0  0
 13 14  1  0  0  0  0
  4 14  1  6  0  0  0
  6 15  1  1  0  0  0
  5 16  1  1  0  0  0
 16 17  1  0  0  0  0
  2 17  1  0  0  0  0
 16 18  1  1  0  0  0
  3 19  1  1  0  0  0
 19 20  1  0  0  0  0
  1 20  1  0  0  0  0
  2 21  1  1  0  0  0
  1 22  1  6  0  0  0
 22 23  1  0  0  0  0
 23 24  1  0  0  0  0
 24 25  1  0  0  0  0
 25 26  1  0  0  0  0
 23 27  2  0  0  0  0
  1 28  1  1  0  0  0
 28 29  1  0  0  0  0
 29 30  1  0  0  0  0
 28 31  2  0  0  0  0
M  END
>  <Name>
Hydrocortisone butyrate

>  <CAS>
13609-67-1

>  <Formula>
C25H36O6

>  <MolWt>
432.55 

>  <Bioactivity>
The main glucocorticoid secreted by the adrenal cortex. Its synthetic counterpart is used, either as an injection or topically, in the treatment of inflammation, allergy, collagen diseases, asthma, adrenocortical deficiency, shock, and some neoplastic conditions. 

>  <Pathways>
Endocrinology/ Hormones

>  <Target>
Glucocorticoid Receptor inhibitor;Annexin A

>  <Receptor>
Glucocorticoid Receptor;Annexin A1

>  <Reference>
1. Grossman R, et al. Ann N Y Acad Sci. 2006 Jul;1071:410-21.

$$$$
34552-84-6
  Mrv1561503291623562D          

 23 25  0  0  0  0            999 V2000
    1.4289   -0.0000    0.0000 C   0  0  0  0  0  0  0  0  0  0  0  0
    2.1434   -0.4125    0.0000 C   0  0  0  0  0  0  0  0  0  0  0  0
    2.8579   -0.0000    0.0000 S   0  0  0  0  0  0  0  0  0  0  0  0
    2.3276    0.6320    0.0000 O   0  0  0  0  0  0  0  0  0  0  0  0
    3.3882    0.6320    0.0000 O   0  0  0  0  0  0  0  0  0  0  0  0
    3.5724   -0.4125    0.0000 N   0  0  0  0  0  0  0  0  0  0  0  0
    3.5724   -1.2375    0.0000 C   0  0  0  0  0  0  0  0  0  0  0  0
    2.8579   -1.6500    0.0000 C   0  0  0  0  0  0  0  0  0  0  0  0
    2.8579   -2.4750    0.0000 O   0  0  0  0  0  0  0  0  0  0  0  0
    2.1434   -1.2375    0.0000 C   0  0  0  0  0  0  0  0  0  0  0  0
    1.4289   -1.6500    0.0000 C   0  0  0  0  0  0  0  0  0  0  0  0
    0.7145   -1.2375    0.0000 C   0  0  0  0  0  0  0  0  0  0  0  0
    0.7145   -0.4125    0.0000 C   0  0  0  0  0  0  0  0  0  0  0  0
    4.2868   -1.6500    0.0000 C   0  0  0  0  0  0  0  0  0  0  0  0
    5.0013   -1.2375    0.0000 O   0  0  0  0  0  0  0  0  0  0  0  0
    4.2868   -2.4750    0.0000 N   0  0  0  0  0  0  0  0  0  0  0  0
    5.0013   -2.8875    0.0000 C   0  0  0  0  0  0  0  0  0  0  0  0
    5.7550   -2.5519    0.0000 N   0  0  0  0  0  0  0  0  0  0  0  0
    6.3070   -3.1650    0.0000 O   0  0  0  0  0  0  0  0  0  0  0  0
    5.8945   -3.8795    0.0000 C   0  0  0  0  0  0  0  0  0  0  0  0
    5.0875   -3.7080    0.0000 C   0  0  0  0  0  0  0  0  0  0  0  0
    6.2301   -4.6332    0.0000 C   0  0  0  0  0  0  0  0  0  0  0  0
    4.2868   -0.0000    0.0000 C   0  0  0  0  0  0  0  0  0  0  0  0
  1  2  2  0  0  0  0
  2  3  1  0  0  0  0
  3  4  2  0  0  0  0
  3  5  2  0  0  0  0
  3  6  1  0  0  0  0
  6  7  1  0  0  0  0
  7  8  1  0  0  0  0
  8  9  2  0  0  0  0
  8 10  1  0  0  0  0
  2 10  1  0  0  0  0
 10 11  2  0  0  0  0
 11 12  1  0  0  0  0
 12 13  2  0  0  0  0
  1 13  1  0  0  0  0
  7 14  2  0  0  0  0
 14 15  1  0  0  0  0
 14 16  1  0  0  0  0
 16 17  1  0  0  0  0
 17 18  2  0  0  0  0
 18 19  1  0  0  0  0
 19 20  1  0  0  0  0
 20 21  2  0  0  0  0
 17 21  1  0  0  0  0
 20 22  1  0  0  0  0
  6 23  1  0  0  0  0
M  END
>  <Name>
Isoxicam

>  <CAS>
34552-84-6

>  <Formula>
C14H13N3O5S

>  <MolWt>
335.34 

>  <Bioactivity>
It is used in the treatment of rheumatoid arthritis, ankylosing spondylitis, osteoarthritis, gout, etc.

>  <Pathways>
Neuroscience

>  <Target>
COX inhibitor

>  <Receptor>
Prostaglandin G/H synthase

>  <Reference>
1. Burch FX. Am J Med. 1985 Oct 18;79(4B):28-32.

$$$$
42200-33-9
  Mrv1561503291623562D          

 22 23  0  0  1  0            999 V2000
   -0.7145   -1.2375    0.0000 C   0  0  1  0  0  0  0  0  0  0  0  0
   -0.0000   -1.6500    0.0000 C   0  0  0  0  0  0  0  0  0  0  0  0
    0.7145   -1.2375    0.0000 C   0  0  0  0  0  0  0  0  0  0  0  0
    0.7145   -0.4125    0.0000 C   0  0  0  0  0  0  0  0  0  0  0  0
   -0.0000    0.0000    0.0000 C   0  0  0  0  0  0  0  0  0  0  0  0
   -0.7145   -0.4125    0.0000 C   0  0  1  0  0  0  0  0  0  0  0  0
   -1.4289   -0.0000    0.0000 O   0  0  0  0  0  0  0  0  0  0  0  0
    1.4289    0.0000    0.0000 C   0  0  0  0  0  0  0  0  0  0  0  0
    2.1434   -0.4125    0.0000 C   0  0  0  0  0  0  0  0  0  0  0  0
    2.1434   -1.2375    0.0000 C   0  0  0  0  0  0  0  0  0  0  0  0
    1.4289   -1.6500    0.0000 C   0  0  0  0  0  0  0  0  0  0  0  0
    1.4289   -2.4750    0.0000 O   0  0  0  0  0  0  0  0  0  0  0  0
    2.1434   -2.8875    0.0000 C   0  0  0  0  0  0  0  0  0  0  0  0
    2.1434   -3.7125    0.0000 C   0  0  0  0  0  0  0  0  0  0  0  0
    2.8579   -4.1250    0.0000 C   0  0  0  0  0  0  0  0  0  0  0  0
    2.8579   -4.9500    0.0000 N   0  0  0  0  0  0  0  0  0  0  0  0
    3.5724   -5.3625    0.0000 C   0  0  0  0  0  0  0  0  0  0  0  0
    4.2868   -5.7750    0.0000 C   0  0  0  0  0  0  0  0  0  0  0  0
    3.1599   -6.0770    0.0000 C   0  0  0  0  0  0  0  0  0  0  0  0
    3.9849   -4.6480    0.0000 C   0  0  0  0  0  0  0  0  0  0  0  0
    1.4289   -4.1250    0.0000 O   0  0  0  0  0  0  0  0  0  0  0  0
   -1.4289   -1.6500    0.0000 O   0  0  0  0  0  0  0  0  0  0  0  0
  1  2  1  0  0  0  0
  2  3  1  0  0  0  0
  3  4  2  0  0  0  0
  4  5  1  0  0  0  0
  5  6  1  0  0  0  0
  1  6  1  0  0  0  0
  6  7  1  6  0  0  0
  4  8  1  0  0  0  0
  8  9  2  0  0  0  0
  9 10  1  0  0  0  0
 10 11  2  0  0  0  0
  3 11  1  0  0  0  0
 11 12  1  0  0  0  0
 12 13  1  0  0  0  0
 13 14  1  0  0  0  0
 14 15  1  0  0  0  0
 15 16  1  0  0  0  0
 16 17  1  0  0  0  0
 17 18  1  0  0  0  0
 17 19  1  0  0  0  0
 17 20  1  0  0  0  0
 14 21  1  0  0  0  0
  1 22  1  6  0  0  0
M  END
>  <Name>
Nadolol

>  <CAS>
42200-33-9

>  <Formula>
C17H27NO4

>  <MolWt>
309.40 

>  <Bioactivity>
A non-selective beta-adrenergic antagonist with a long half-life, used in cardiovascular disease to treat arrhythmias, angina pectoris, and hypertension. Nadolol is also used for MIGRAINE DISORDERS and for tremor.

>  <Pathways>
GPCR/G Protein

>  <Target>
Adrenergic Receptor antagonist

>  <Receptor>
?-adrenergic receptor

>  <Reference>
1. Wheeldon NM, et al. Br J Clin Pharmacol. 1994 Aug;38(2):103-8. 

$$$$
73-48-3
  Mrv1561503291623562D          

 27 29  0  0  0  0            999 V2000
   -0.0000    0.0000    0.0000 C   0  0  0  0  0  0  0  0  0  0  0  0
   -0.7145   -0.4125    0.0000 C   0  0  0  0  0  0  0  0  0  0  0  0
   -1.4289    0.0000    0.0000 C   0  0  0  0  0  0  0  0  0  0  0  0
   -2.1434    0.4125    0.0000 F   0  0  0  0  0  0  0  0  0  0  0  0
   -1.8414   -0.7145    0.0000 F   0  0  0  0  0  0  0  0  0  0  0  0
   -1.0164    0.7145    0.0000 F   0  0  0  0  0  0  0  0  0  0  0  0
   -0.7145   -1.2375    0.0000 C   0  0  0  0  0  0  0  0  0  0  0  0
   -0.0000   -1.6500    0.0000 C   0  0  0  0  0  0  0  0  0  0  0  0
    0.7145   -1.2375    0.0000 C   0  0  0  0  0  0  0  0  0  0  0  0
    0.7145   -0.4125    0.0000 C   0  0  0  0  0  0  0  0  0  0  0  0
    1.4289    0.0000    0.0000 N   0  0  0  0  0  0  0  0  0  0  0  0
    2.1434   -0.4125    0.0000 C   0  0  0  0  0  0  0  0  0  0  0  0
    2.8579    0.0000    0.0000 C   0  0  0  0  0  0  0  0  0  0  0  0
    3.5724   -0.4125    0.0000 C   0  0  0  0  0  0  0  0  0  0  0  0
    4.2868   -0.0000    0.0000 C   0  0  0  0  0  0  0  0  0  0  0  0
    5.0013   -0.4125    0.0000 C   0  0  0  0  0  0  0  0  0  0  0  0
    5.0013   -1.2375    0.0000 C   0  0  0  0  0  0  0  0  0  0  0  0
    4.2868   -1.6500    0.0000 C   0  0  0  0  0  0  0  0  0  0  0  0
    3.5724   -1.2375    0.0000 C   0  0  0  0  0  0  0  0  0  0  0  0
    2.1434   -1.2375    0.0000 N   0  0  0  0  0  0  0  0  0  0  0  0
    1.4289   -1.6500    0.0000 S   0  0  0  0  0  0  0  0  0  0  0  0
    1.8163   -2.3784    0.0000 O   0  0  0  0  0  0  0  0  0  0  0  0
    1.0416   -2.3784    0.0000 O   0  0  0  0  0  0  0  0  0  0  0  0
   -1.4289   -1.6500    0.0000 S   0  0  0  0  0  0  0  0  0  0  0  0
   -2.1434   -2.0625    0.0000 N   0  0  0  0  0  0  0  0  0  0  0  0
   -2.0420   -1.0980    0.0000 O   0  0  0  0  0  0  0  0  0  0  0  0
   -1.0164   -2.3645    0.0000 O   0  0  0  0  0  0  0  0  0  0  0  0
  1  2  2  0  0  0  0
  2  3  1  0  0  0  0
  3  4  1  0  0  0  0
  3  5  1  0  0  0  0
  3  6  1  0  0  0  0
  2  7  1  0  0  0  0
  7  8  2  0  0  0  0
  8  9  1  0  0  0  0
  9 10  2  0  0  0  0
  1 10  1  0  0  0  0
 10 11  1  0  0  0  0
 11 12  1  0  0  0  0
 12 13  1  0  0  0  0
 13 14  1  0  0  0  0
 14 15  2  0  0  0  0
 15 16  1  0  0  0  0
 16 17  2  0  0  0  0
 17 18  1  0  0  0  0
 18 19  2  0  0  0  0
 14 19  1  0  0  0  0
 12 20  1  0  0  0  0
 20 21  1  0  0  0  0
  9 21  1  0  0  0  0
 21 22  2  0  0  0  0
 21 23  2  0  0  0  0
  7 24  1  0  0  0  0
 24 25  1  0  0  0  0
 24 26  2  0  0  0  0
 24 27  2  0  0  0  0
M  END
>  <Name>
Bendroflumethiazide

>  <CAS>
73-48-3

>  <Formula>
C15H14F3N3O4S2

>  <MolWt>
421.41 

>  <Bioactivity>
A thiazide diuretic with actions and uses similar to those of HYDROCHLOROTHIAZIDE. It has been used in the treatment of familial hyperkalemia, hypertension, edema, and urinary tract disorders. (From Martindale, The Extra Pharmacopoeia, 30th ed, p810) 

>  <Pathways>
Membrane Transporter/Ion Channel; Metabolism

>  <Target>
Carbonic anhydrase inhibitor;Potassium Channel inducer

>  <Receptor>
CA; Calcium-activated potassium channel

>  <Reference>
1. Tricarico D, et al. FASEB J. 2004 Apr;18(6):760-1. 

$$$$
T1121
  Mrv1561503291623562D          

 30 34  0  0  1  0            999 V2000
    2.6378   -2.3479    0.0000 C   0  0  1  0  0  0  0  0  0  0  0  0
    2.6378   -1.5229    0.0000 C   0  0  1  0  0  0  0  0  0  0  0  0
    3.3523   -1.1104    0.0000 C   0  0  1  0  0  0  0  0  0  0  0  0
    4.0668   -1.5229    0.0000 C   0  0  0  0  0  0  0  0  0  0  0  0
    4.7812   -1.1104    0.0000 C   0  0  0  0  0  0  0  0  0  0  0  0
    5.4957   -1.5229    0.0000 C   0  0  0  0  0  0  0  0  0  0  0  0
    5.4957   -2.3479    0.0000 C   0  0  0  0  0  0  0  0  0  0  0  0
    4.7812   -2.7604    0.0000 C   0  0  0  0  0  0  0  0  0  0  0  0
    4.0668   -2.3479    0.0000 C   0  0  0  0  0  0  0  0  0  0  0  0
    3.3523   -2.7604    0.0000 C   0  0  2  0  0  0  0  0  0  0  0  0
    3.3523   -3.5854    0.0000 O   0  0  0  0  0  0  0  0  0  0  0  0
    6.2803   -2.6029    0.0000 O   0  0  0  0  0  0  0  0  0  0  0  0
    6.7652   -1.9354    0.0000 C   0  0  0  0  0  0  0  0  0  0  0  0
    6.2803   -1.2680    0.0000 O   0  0  0  0  0  0  0  0  0  0  0  0
    3.3523   -0.2854    0.0000 C   0  0  0  0  0  0  0  0  0  0  0  0
    2.6378    0.1271    0.0000 C   0  0  0  0  0  0  0  0  0  0  0  0
    2.6378    0.9521    0.0000 C   0  0  0  0  0  0  0  0  0  0  0  0
    3.3523    1.3646    0.0000 C   0  0  0  0  0  0  0  0  0  0  0  0
    4.0668    0.9521    0.0000 C   0  0  0  0  0  0  0  0  0  0  0  0
    4.0668    0.1271    0.0000 C   0  0  0  0  0  0  0  0  0  0  0  0
    4.7812    1.3646    0.0000 O   0  0  0  0  0  0  0  0  0  0  0  0
    5.4957    0.9521    0.0000 C   0  0  0  0  0  0  0  0  0  0  0  0
    3.3523    2.1896    0.0000 O   0  0  0  0  0  0  0  0  0  0  0  0
    2.6378    2.6021    0.0000 C   0  0  0  0  0  0  0  0  0  0  0  0
    1.9233    1.3646    0.0000 O   0  0  0  0  0  0  0  0  0  0  0  0
    1.9233    2.1896    0.0000 C   0  0  0  0  0  0  0  0  0  0  0  0
    1.8532   -1.2680    0.0000 C   0  0  0  0  0  0  0  0  0  0  0  0
    1.3683   -1.9354    0.0000 O   0  0  0  0  0  0  0  0  0  0  0  0
    1.8532   -2.6029    0.0000 C   0  0  0  0  0  0  0  0  0  0  0  0
    1.5983   -0.4834    0.0000 O   0  0  0  0  0  0  0  0  0  0  0  0
  1  2  1  0  0  0  0
  2  3  1  0  0  0  0
  3  4  1  0  0  0  0
  4  5  2  0  0  0  0
  5  6  1  0  0  0  0
  6  7  2  0  0  0  0
  7  8  1  0  0  0  0
  8  9  2  0  0  0  0
  4  9  1  0  0  0  0
  9 10  1  0  0  0  0
  1 10  1  0  0  0  0
 10 11  1  6  0  0  0
  7 12  1  0  0  0  0
 12 13  1  0  0  0  0
 13 14  1  0  0  0  0
  6 14  1  0  0  0  0
  3 15  1  6  0  0  0
 15 16  2  0  0  0  0
 16 17  1  0  0  0  0
 17 18  2  0  0  0  0
 18 19  1  0  0  0  0
 19 20  2  0  0  0  0
 15 20  1  0  0  0  0
 19 21  1  0  0  0  0
 21 22  1  0  0  0  0
 18 23  1  0  0  0  0
 23 24  1  0  0  0  0
 17 25  1  0  0  0  0
 25 26  1  0  0  0  0
  2 27  1  6  0  0  0
 27 28  1  0  0  0  0
 28 29  1  0  0  0  0
  1 29  1  1  0  0  0
 27 30  2  0  0  0  0
M  END
>  <Name>
Podophyllotoxin

>  <CAS>
518-28-5

>  <Formula>
C22H22O8

>  <MolWt>
414.41 

>  <Bioactivity>
Podophyllotoxin is a lignan (LIGNANS) found in PODOPHYLLIN resin from the roots of PODOPHYLLUM plants. It is a potent spindle poison, toxic if taken internally, and has been used as a cathartic. It is very irritating to skin and mucous membranes, has keratolytic actions, has been used to treat warts and keratoses, and may have antineoplastic properties, as do some of its congeners and derivatives.


>  <Pathways>
Cell Cycle/Checkpoint

>  <Target>
Microtubule Associated inhibitor

>  <Receptor>
Microtubule/Tubulin;Topoisomerase II 

>  <Reference>
1. Zhang YL, et al. J Nat Prod. 1992 Aug; 55(8):1100-11. 

$$$$
737-31-5
  Mrv1561503291623562D          

 21 20  0  0  0  0            999 V2000
    1.4289    3.3000    0.0000 C   0  0  0  0  0  0  0  0  0  0  0  0
    1.4289    2.4750    0.0000 C   0  0  0  0  0  0  0  0  0  0  0  0
    0.7145    2.0625    0.0000 N   0  0  0  0  0  0  0  0  0  0  0  0
    0.7145    1.2375    0.0000 C   0  0  0  0  0  0  0  0  0  0  0  0
    1.4289    0.8250    0.0000 C   0  0  0  0  0  0  0  0  0  0  0  0
    1.4289    0.0000    0.0000 C   0  0  0  0  0  0  0  0  0  0  0  0
    0.7145   -0.4125    0.0000 C   0  0  0  0  0  0  0  0  0  0  0  0
    0.7145   -1.2375    0.0000 I   0  0  0  0  0  0  0  0  0  0  0  0
    0.0000   -0.0000    0.0000 C   0  0  0  0  0  0  0  0  0  0  0  0
    0.0000    0.8250    0.0000 C   0  0  0  0  0  0  0  0  0  0  0  0
   -0.7145    1.2375    0.0000 I   0  0  0  0  0  0  0  0  0  0  0  0
   -0.7145   -0.4125    0.0000 N   0  0  0  0  0  0  0  0  0  0  0  0
   -1.4289    0.0000    0.0000 C   0  0  0  0  0  0  0  0  0  0  0  0
   -2.1434   -0.4125    0.0000 C   0  0  0  0  0  0  0  0  0  0  0  0
   -1.4289    0.8250    0.0000 O   0  0  0  0  0  0  0  0  0  0  0  0
    2.1434   -0.4125    0.0000 C   0  0  0  0  0  0  0  0  0  0  0  0
    2.8579    0.0000    0.0000 O   0  0  0  0  0  0  0  0  0  0  0  0
    2.1434   -1.2375    0.0000 O   0  5  0  0  0  0  0  0  0  0  0  0
    2.1434    1.2375    0.0000 I   0  0  0  0  0  0  0  0  0  0  0  0
    2.1434    2.0625    0.0000 O   0  0  0  0  0  0  0  0  0  0  0  0
    2.1434   -2.0625    0.0000 Na  0  3  0  0  0  0  0  0  0  0  0  0
  1  2  1  0  0  0  0
  2  3  1  0  0  0  0
  3  4  1  0  0  0  0
  4  5  2  0  0  0  0
  5  6  1  0  0  0  0
  6  7  2  0  0  0  0
  7  8  1  0  0  0  0
  7  9  1  0  0  0  0
  9 10  2  0  0  0  0
  4 10  1  0  0  0  0
 10 11  1  0  0  0  0
  9 12  1  0  0  0  0
 12 13  1  0  0  0  0
 13 14  1  0  0  0  0
 13 15  2  0  0  0  0
  6 16  1  0  0  0  0
 16 17  2  0  0  0  0
 16 18  1  0  0  0  0
  5 19  1  0  0  0  0
  2 20  2  0  0  0  0
M  CHG  2  18  -1  21   1
M  END
>  <Name>
Diatrizoate sodium

>  <CAS>
737-31-5

>  <Formula>
C11H8I3N2NaO4

>  <MolWt>
635.90 

>  <Bioactivity>
Diatrizoate Sodium is an iodinated radiopaque X-ray contrast medium. Diatrizoate sodium blocks X-rays, thereby allowing body structures containing iodine to be delineated in contrast to those structures that do not contain iodine and allowing visualization of these areas. This contrast agent is used as a diagnostic aid in angiography, urography and radiography. 

>  <Pathways>
Others

>  <Target>
Others

>  <Receptor>
Others

>  <Reference>
1. Abd El-Rahman MK, et al. Spectrochim Acta A Mol Biomol Spectrosc. 2015 Feb 5;136 Pt B:1167-74. 

$$$$
155-41-9
  Mrv1561503291623562D          

 24 26  0  0  1  0            999 V2000
   -1.8694    1.6103    0.0000 C   0  0  2  0  0  0  0  0  0  0  0  0
   -2.1011    0.6834    0.0000 N   0  3  0  0  0  0  0  0  0  0  0  0
   -1.8694   -0.2435    0.0000 C   0  0  2  0  0  0  0  0  0  0  0  0
   -2.5144    0.2709    0.0000 C   0  0  1  0  0  0  0  0  0  0  0  0
   -3.2288    0.6834    0.0000 O   0  0  0  0  0  0  0  0  0  0  0  0
   -2.5144    1.0959    0.0000 C   0  0  1  0  0  0  0  0  0  0  0  0
   -1.0650   -0.0599    0.0000 C   0  0  0  0  0  0  0  0  0  0  0  0
   -0.7071    0.6834    0.0000 C   0  0  0  0  0  0  0  0  0  0  0  0
    0.1179    0.6834    0.0000 O   0  0  0  0  0  0  0  0  0  0  0  0
    0.5304   -0.0311    0.0000 C   0  0  0  0  0  0  0  0  0  0  0  0
    0.1179   -0.7455    0.0000 O   0  0  0  0  0  0  0  0  0  0  0  0
    1.3554   -0.0311    0.0000 C   0  0  0  0  0  0  0  0  0  0  0  0
    1.7679    0.6834    0.0000 C   0  0  0  0  0  0  0  0  0  0  0  0
    2.5929    0.6834    0.0000 O   0  0  0  0  0  0  0  0  0  0  0  0
    1.7679   -0.7455    0.0000 C   0  0  0  0  0  0  0  0  0  0  0  0
    2.5929   -0.7455    0.0000 C   0  0  0  0  0  0  0  0  0  0  0  0
    3.0054   -1.4600    0.0000 C   0  0  0  0  0  0  0  0  0  0  0  0
    2.5929   -2.1745    0.0000 C   0  0  0  0  0  0  0  0  0  0  0  0
    1.7679   -2.1745    0.0000 C   0  0  0  0  0  0  0  0  0  0  0  0
    1.3554   -1.4600    0.0000 C   0  0  0  0  0  0  0  0  0  0  0  0
   -1.0650    1.4267    0.0000 C   0  0  0  0  0  0  0  0  0  0  0  0
   -1.3152    0.9346    0.0000 C   0  0  0  0  0  0  0  0  0  0  0  0
   -1.3152    0.4322    0.0000 C   0  0  0  0  0  0  0  0  0  0  0  0
    5.3626    0.0000    0.0000 Br  0  5  0  0  0  0  0  0  0  0  0  0
  1  2  1  0  0  0  0
  2  3  1  0  0  0  0
  3  4  1  0  0  0  0
  4  5  1  1  0  0  0
  6  5  1  1  0  0  0
  1  6  1  0  0  0  0
  4  6  1  0  0  0  0
  3  7  1  1  0  0  0
  7  8  1  0  0  0  0
  8  9  1  0  0  0  0
  9 10  1  0  0  0  0
 10 11  2  0  0  0  0
 10 12  1  0  0  0  0
 12 13  1  0  0  0  0
 13 14  1  0  0  0  0
 12 15  1  0  0  0  0
 15 16  2  0  0  0  0
 16 17  1  0  0  0  0
 17 18  2  0  0  0  0
 18 19  1  0  0  0  0
 19 20  2  0  0  0  0
 15 20  1  0  0  0  0
  8 21  1  0  0  0  0
  1 21  1  6  0  0  0
  2 22  1  0  0  0  0
  2 23  1  0  0  0  0
M  CHG  2   2   1  24  -1
M  END
>  <Name>
Methscopolamine

>  <CAS>
155-41-9

>  <Formula>
C18H24BrNO4

>  <MolWt>
398.29 

>  <Bioactivity>
A muscarinic antagonist used to study binding characteristics of muscarinic cholinergic receptors.

>  <Pathways>
Neuroscience

>  <Target>
AChR antagonist

>  <Receptor>
Muscarinic AChR

>  <Reference>
1. Soukup O, et al. Neurotox Res. 2009 Nov;16(4):372-7.

$$$$
79-61-8
  Mrv1561503291623562D          

 30 33  0  0  1  0            999 V2000
    2.3387    0.7029    0.0000 C   0  0  1  0  0  0  0  0  0  0  0  0
    1.8069    1.3336    0.0000 Cl  0  0  0  0  0  0  0  0  0  0  0  0
    2.8705    0.0722    0.0000 C   0  0  0  0  0  0  0  0  0  0  0  0
    3.6826    0.2174    0.0000 C   0  0  0  0  0  0  0  0  0  0  0  0
    3.9629    0.9934    0.0000 C   0  0  0  0  0  0  0  0  0  0  0  0
    4.7875    0.9666    0.0000 C   0  0  2  0  0  0  0  0  0  0  0  0
    4.7280    1.7894    0.0000 O   0  0  0  0  0  0  0  0  0  0  0  0
    5.0168    0.1741    0.0000 C   0  0  0  0  0  0  0  0  0  0  0  0
    4.3340   -0.2889    0.0000 C   0  0  0  0  0  0  0  0  0  0  0  0
    5.5996    1.1118    0.0000 C   0  0  0  0  0  0  0  0  0  0  0  0
    5.8799    1.8877    0.0000 O   0  0  0  0  0  0  0  0  0  0  0  0
    6.1315    0.4811    0.0000 C   0  0  0  0  0  0  0  0  0  0  0  0
    6.9436    0.6263    0.0000 O   0  0  0  0  0  0  0  0  0  0  0  0
    7.4754   -0.0044    0.0000 C   0  0  0  0  0  0  0  0  0  0  0  0
    8.2875    0.1408    0.0000 O   0  0  0  0  0  0  0  0  0  0  0  0
    7.1951   -0.7804    0.0000 C   0  0  0  0  0  0  0  0  0  0  0  0
    3.4311    1.6241    0.0000 C   0  0  0  0  0  0  0  0  0  0  0  0
    2.6190    1.4789    0.0000 C   0  0  0  0  0  0  0  0  0  0  0  0
    2.0872    2.1096    0.0000 Cl  0  0  0  0  0  0  0  0  0  0  0  0
    4.3228    1.7357    0.0000 C   0  0  0  0  0  0  0  0  0  0  0  0
    2.5902   -0.7037    0.0000 C   0  0  0  0  0  0  0  0  0  0  0  0
    1.7781   -0.8489    0.0000 C   0  0  0  0  0  0  0  0  0  0  0  0
    1.2463   -0.2182    0.0000 C   0  0  0  0  0  0  0  0  0  0  0  0
    0.4342   -0.3634    0.0000 C   0  0  0  0  0  0  0  0  0  0  0  0
   -0.0976    0.2673    0.0000 C   0  0  0  0  0  0  0  0  0  0  0  0
   -0.9098    0.1221    0.0000 O   0  0  0  0  0  0  0  0  0  0  0  0
    0.1827    1.0432    0.0000 C   0  0  0  0  0  0  0  0  0  0  0  0
    0.9948    1.1884    0.0000 C   0  0  0  0  0  0  0  0  0  0  0  0
    1.5266    0.5577    0.0000 C   0  0  0  0  0  0  0  0  0  0  0  0
    1.2973    1.3502    0.0000 C   0  0  0  0  0  0  0  0  0  0  0  0
  1  2  1  6  0  0  0
  1  3  1  0  0  0  0
  3  4  1  0  0  0  0
  4  5  1  0  0  0  0
  5  6  1  0  0  0  0
  6  7  1  6  0  0  0
  6  8  1  0  0  0  0
  8  9  1  0  0  0  0
  4  9  1  0  0  0  0
  6 10  1  1  0  0  0
 10 11  2  0  0  0  0
 10 12  1  0  0  0  0
 12 13  1  0  0  0  0
 13 14  1  0  0  0  0
 14 15  2  0  0  0  0
 14 16  1  0  0  0  0
  5 17  1  0  0  0  0
 17 18  1  0  0  0  0
  1 18  1  0  0  0  0
 18 19  1  0  0  0  0
  5 20  1  0  0  0  0
  3 21  1  0  0  0  0
 21 22  1  0  0  0  0
 22 23  1  0  0  0  0
 23 24  2  0  0  0  0
 24 25  1  0  0  0  0
 25 26  2  0  0  0  0
 25 27  1  0  0  0  0
 27 28  2  0  0  0  0
 28 29  1  0  0  0  0
  1 29  1  0  0  0  0
 23 29  1  0  0  0  0
 29 30  1  0  0  0  0
M  END
>  <Name>
Dichlorisone Acetate

>  <CAS>
79-61-8

>  <Formula>
C23H28Cl2O5

>  <MolWt>
455.40 

>  <Bioactivity>
it belongs to organophosphate compounds,  used as a kind of common environmental health insecticide.

>  <Pathways>
Neuroscience

>  <Target>
AChE inhibitor

>  <Receptor>
AChE

>  <Reference>
1. JEANDIDIER P. Ann Med Nancy. 1964 Aug-Sep;42:1062-5.

$$$$
T0982
  Mrv1561503291623562D          

 40 39  0  0  1  0            999 V2000
    1.4850    0.2858    0.0000 C   0  0  0  0  0  0  0  0  0  0  0  0
    1.8975    1.0003    0.0000 C   0  0  0  0  0  0  0  0  0  0  0  0
    2.7225    1.0003    0.0000 C   0  0  0  0  0  0  0  0  0  0  0  0
    3.1350    1.7147    0.0000 C   0  0  0  0  0  0  0  0  0  0  0  0
    2.7225    2.4292    0.0000 C   0  0  0  0  0  0  0  0  0  0  0  0
    1.8975    2.4292    0.0000 C   0  0  0  0  0  0  0  0  0  0  0  0
    1.4850    1.7147    0.0000 C   0  0  0  0  0  0  0  0  0  0  0  0
    1.4850    3.1437    0.0000 O   0  0  0  0  0  0  0  0  0  0  0  0
    0.6600    3.1437    0.0000 C   0  0  0  0  0  0  0  0  0  0  0  0
    3.1350    3.1437    0.0000 O   0  0  0  0  0  0  0  0  0  0  0  0
    2.7225    3.8581    0.0000 C   0  0  0  0  0  0  0  0  0  0  0  0
    3.1350    0.2858    0.0000 C   0  0  0  0  0  0  0  0  0  0  0  0
    2.7225   -0.4287    0.0000 C   0  0  0  0  0  0  0  0  0  0  0  0
    1.8975   -0.4287    0.0000 N   0  0  0  0  0  0  0  0  0  0  0  0
    0.6600    0.2858    0.0000 C   0  0  0  0  0  0  0  0  0  0  0  0
    0.2475   -0.4287    0.0000 C   0  0  0  0  0  0  0  0  0  0  0  0
    0.6600   -1.1432    0.0000 C   0  0  0  0  0  0  0  0  0  0  0  0
    0.2475   -1.8576    0.0000 C   0  0  0  0  0  0  0  0  0  0  0  0
   -0.5775   -1.8576    0.0000 N   0  0  0  0  0  0  0  0  0  0  0  0
   -0.9900   -1.1432    0.0000 C   0  0  0  0  0  0  0  0  0  0  0  0
   -0.5775   -0.4287    0.0000 C   0  0  0  0  0  0  0  0  0  0  0  0
   -1.8150   -1.1432    0.0000 C   0  0  0  0  0  0  0  0  0  0  0  0
   -2.2275   -1.8576    0.0000 C   0  0  0  0  0  0  0  0  0  0  0  0
   -1.8150   -2.5721    0.0000 C   0  0  0  0  0  0  0  0  0  0  0  0
   -0.9900   -2.5721    0.0000 C   0  0  0  0  0  0  0  0  0  0  0  0
   -3.0525   -1.8576    0.0000 C   0  0  0  0  0  0  0  0  0  0  0  0
   -3.4650   -1.1432    0.0000 C   0  0  0  0  0  0  0  0  0  0  0  0
   -3.0525   -0.4287    0.0000 C   0  0  0  0  0  0  0  0  0  0  0  0
   -2.2275   -0.4287    0.0000 C   0  0  0  0  0  0  0  0  0  0  0  0
   -3.4650    0.2858    0.0000 O   0  0  0  0  0  0  0  0  0  0  0  0
   -3.0525    1.0003    0.0000 C   0  0  0  0  0  0  0  0  0  0  0  0
   -4.2900   -1.1432    0.0000 O   0  0  0  0  0  0  0  0  0  0  0  0
   -4.7025   -1.8576    0.0000 C   0  0  0  0  0  0  0  0  0  0  0  0
    1.4850   -1.1432    0.0000 C   0  0  0  0  0  0  0  0  0  0  0  0
    1.8975   -1.8576    0.0000 C   0  0  0  0  0  0  0  0  0  0  0  0
    6.3171    0.0000    0.0000 H   0  3  0  0  0  0  0  0  0  0  0  0
    0.4125   -4.2221    0.0000 H   0  3  0  0  0  0  0  0  0  0  0  0
    5.4921    0.0000    0.0000 Cl  0  5  0  0  0  0  0  0  0  0  0  0
    2.7696   -4.2221    0.0000 O   0  0  0  0  0  0  0  0  0  0  0  0
   -0.4125   -4.2221    0.0000 Cl  0  5  0  0  0  0  0  0  0  0  0  0
  1  2  1  0  0  0  0
  2  3  2  0  0  0  0
  3  4  1  0  0  0  0
  4  5  2  0  0  0  0
  5  6  1  0  0  0  0
  6  7  2  0  0  0  0
  2  7  1  0  0  0  0
  6  8  1  0  0  0  0
  8  9  1  0  0  0  0
  5 10  1  0  0  0  0
 10 11  1  0  0  0  0
  3 12  1  0  0  0  0
 12 13  1  0  0  0  0
 13 14  1  0  0  0  0
  1 14  1  0  0  0  0
  1 15  1  0  0  0  0
 15 16  1  0  0  0  0
 16 17  1  0  0  0  0
 17 18  1  0  0  0  0
 18 19  1  0  0  0  0
 19 20  1  0  0  0  0
 20 21  1  0  0  0  0
 16 21  1  0  0  0  0
 20 22  1  0  0  0  0
 22 23  2  0  0  0  0
 23 24  1  0  0  0  0
 24 25  1  0  0  0  0
 19 25  1  0  0  0  0
 23 26  1  0  0  0  0
 26 27  2  0  0  0  0
 27 28  1  0  0  0  0
 28 29  2  0  0  0  0
 22 29  1  0  0  0  0
 28 30  1  0  0  0  0
 30 31  1  0  0  0  0
 27 32  1  0  0  0  0
 32 33  1  0  0  0  0
 17 34  1  0  0  0  0
 34 35  1  0  0  0  0
M  CHG  4  36   1  37   1  38  -1  40  -1
M  END
>  <Name>
(+)-Emetine 2HCl hydrate

>  <CAS>
7083-71-8

>  <Formula>
C29H40N2O4.2HCl

>  <MolWt>
553.56 

>  <Bioactivity>
Emetine is a drug used as both an anti-protozoal and to induce vomiting. It is produced from the ipecac root.

>  <Pathways>
Microbiology & Virology

>  <Target>
Antibiotic

>  <Receptor>
Others

>  <Reference>
1. Nomura T, Kutchan TM. J Biol Chem. 2010 Mar 5;285(10):7722-38.

$$$$
67-73-2
  Mrv1561503291623562D          

 32 36  0  0  1  0            999 V2000
    0.8348   -4.5841    0.0000 C   0  0  1  0  0  0  0  0  0  0  0  0
    1.6557   -4.6657    0.0000 C   0  0  2  0  0  0  0  0  0  0  0  0
    1.9870   -3.9101    0.0000 C   0  0  2  0  0  0  0  0  0  0  0  0
    2.8070   -3.8193    0.0000 C   0  0  1  0  0  0  0  0  0  0  0  0
    3.2957   -4.4840    0.0000 C   0  0  2  0  0  0  0  0  0  0  0  0
    4.1157   -4.3931    0.0000 C   0  0  2  0  0  0  0  0  0  0  0  0
    4.4470   -3.6375    0.0000 C   0  0  0  0  0  0  0  0  0  0  0  0
    5.2669   -3.5467    0.0000 C   0  0  0  0  0  0  0  0  0  0  0  0
    5.7556   -4.2114    0.0000 C   0  0  0  0  0  0  0  0  0  0  0  0
    6.5756   -4.1205    0.0000 O   0  0  0  0  0  0  0  0  0  0  0  0
    5.4243   -4.9669    0.0000 C   0  0  0  0  0  0  0  0  0  0  0  0
    4.6043   -5.0578    0.0000 C   0  0  0  0  0  0  0  0  0  0  0  0
    3.9583   -2.9728    0.0000 C   0  0  2  0  0  0  0  0  0  0  0  0
    3.1383   -3.0637    0.0000 C   0  0  0  0  0  0  0  0  0  0  0  0
    4.2896   -2.2173    0.0000 F   0  0  0  0  0  0  0  0  0  0  0  0
    3.7844   -5.1487    0.0000 C   0  0  0  0  0  0  0  0  0  0  0  0
    3.3003   -5.3089    0.0000 F   0  0  0  0  0  0  0  0  0  0  0  0
    2.9644   -5.2395    0.0000 C   0  0  2  0  0  0  0  0  0  0  0  0
    2.1444   -5.3304    0.0000 C   0  0  0  0  0  0  0  0  0  0  0  0
    3.4531   -5.9042    0.0000 O   0  0  0  0  0  0  0  0  0  0  0  0
    1.3708   -3.3615    0.0000 C   0  0  0  0  0  0  0  0  0  0  0  0
    0.6587   -3.7781    0.0000 C   0  0  1  0  0  0  0  0  0  0  0  0
   -0.1623   -3.6965    0.0000 O   0  0  0  0  0  0  0  0  0  0  0  0
   -0.4936   -4.4520    0.0000 C   0  0  0  0  0  0  0  0  0  0  0  0
    0.1226   -5.0006    0.0000 O   0  0  0  0  0  0  0  0  0  0  0  0
   -1.2822   -4.2097    0.0000 C   0  0  0  0  0  0  0  0  0  0  0  0
   -1.1093   -5.0011    0.0000 C   0  0  0  0  0  0  0  0  0  0  0  0
    1.4887   -5.4736    0.0000 C   0  0  0  0  0  0  0  0  0  0  0  0
    1.0108   -5.3901    0.0000 C   0  0  0  0  0  0  0  0  0  0  0  0
    0.4009   -5.9455    0.0000 C   0  0  0  0  0  0  0  0  0  0  0  0
   -0.3852   -5.6950    0.0000 O   0  0  0  0  0  0  0  0  0  0  0  0
    1.6810   -5.8712    0.0000 O   0  0  0  0  0  0  0  0  0  0  0  0
  1  2  1  0  0  0  0
  2  3  1  0  0  0  0
  3  4  1  0  0  0  0
  4  5  1  0  0  0  0
  5  6  1  0  0  0  0
  6  7  1  0  0  0  0
  7  8  2  0  0  0  0
  8  9  1  0  0  0  0
  9 10  2  0  0  0  0
  9 11  1  0  0  0  0
 11 12  2  0  0  0  0
  6 12  1  0  0  0  0
  7 13  1  0  0  0  0
 13 14  1  0  0  0  0
  4 14  1  6  0  0  0
 13 15  1  6  0  0  0
  6 16  1  1  0  0  0
  5 17  1  6  0  0  0
  5 18  1  0  0  0  0
 18 19  1  0  0  0  0
  2 19  1  0  0  0  0
 18 20  1  1  0  0  0
  3 21  1  1  0  0  0
 21 22  1  0  0  0  0
  1 22  1  0  0  0  0
 22 23  1  6  0  0  0
 23 24  1  0  0  0  0
 24 25  1  0  0  0  0
  1 25  1  0  0  0  0
 24 26  1  0  0  0  0
 24 27  1  0  0  0  0
  2 28  1  1  0  0  0
  1 29  1  1  0  0  0
 29 30  1  0  0  0  0
 30 31  1  0  0  0  0
 29 32  2  0  0  0  0
M  END
>  <Name>
Fluocinolone acetonide

>  <CAS>
67-73-2

>  <Formula>
C24H30F2O6

>  <MolWt>
452.49 

>  <Bioactivity>
Fluocinolone Acetonide is a corticosteroid that binds to the cytosolic glucocorticoid receptor.

>  <Pathways>
Others

>  <Target>
Others

>  <Receptor>
Others

>  <Reference>
N/A

$$$$
51-60-5
  Mrv1561503291623562D          

 22 21  0  0  0  0            999 V2000
   -0.2233    0.1805    0.0000 C   0  0  0  0  0  0  0  0  0  0  0  0
   -0.2233   -0.6445    0.0000 C   0  0  0  0  0  0  0  0  0  0  0  0
   -0.9377   -1.0570    0.0000 C   0  0  0  0  0  0  0  0  0  0  0  0
   -1.6522   -0.6445    0.0000 C   0  0  0  0  0  0  0  0  0  0  0  0
   -1.6522    0.1805    0.0000 C   0  0  0  0  0  0  0  0  0  0  0  0
   -0.9377    0.5930    0.0000 C   0  0  0  0  0  0  0  0  0  0  0  0
   -0.9377    1.4180    0.0000 N   0  3  0  0  0  0  0  0  0  0  0  0
   -0.9377    2.2430    0.0000 C   0  0  0  0  0  0  0  0  0  0  0  0
   -1.7627    1.4180    0.0000 C   0  0  0  0  0  0  0  0  0  0  0  0
   -0.1127    1.4180    0.0000 C   0  0  0  0  0  0  0  0  0  0  0  0
    0.4912   -1.0570    0.0000 O   0  0  0  0  0  0  0  0  0  0  0  0
    1.2057   -0.6445    0.0000 C   0  0  0  0  0  0  0  0  0  0  0  0
    1.9201   -1.0570    0.0000 N   0  0  0  0  0  0  0  0  0  0  0  0
    2.6346   -0.6445    0.0000 C   0  0  0  0  0  0  0  0  0  0  0  0
    1.9201   -1.8820    0.0000 C   0  0  0  0  0  0  0  0  0  0  0  0
    1.2057    0.1805    0.0000 O   0  0  0  0  0  0  0  0  0  0  0  0
    4.9918   -1.0312    0.0000 C   0  0  0  0  0  0  0  0  0  0  0  0
    5.7062   -0.6188    0.0000 O   0  0  0  0  0  0  0  0  0  0  0  0
    5.7062    0.2062    0.0000 S   0  0  0  0  0  0  0  0  0  0  0  0
    5.7062    1.0313    0.0000 O   0  0  0  0  0  0  0  0  0  0  0  0
    6.5312    0.2062    0.0000 O   0  0  0  0  0  0  0  0  0  0  0  0
    4.8812    0.2062    0.0000 O   0  5  0  0  0  0  0  0  0  0  0  0
  1  2  2  0  0  0  0
  2  3  1  0  0  0  0
  3  4  2  0  0  0  0
  4  5  1  0  0  0  0
  5  6  2  0  0  0  0
  1  6  1  0  0  0  0
  6  7  1  0  0  0  0
  7  8  1  0  0  0  0
  7  9  1  0  0  0  0
  7 10  1  0  0  0  0
  2 11  1  0  0  0  0
 11 12  1  0  0  0  0
 12 13  1  0  0  0  0
 13 14  1  0  0  0  0
 13 15  1  0  0  0  0
 12 16  2  0  0  0  0
 17 18  1  0  0  0  0
 18 19  1  0  0  0  0
 19 20  2  0  0  0  0
 19 21  2  0  0  0  0
 19 22  1  0  0  0  0
M  CHG  2   7   1  22  -1
M  END
>  <Name>
Hodostin

>  <CAS>
51-60-5

>  <Formula>
C13H22N2O6S

>  <MolWt>
334.39 

>  <Bioactivity>
Neostigmine methyl sulfate is a cholinesterase inhibitor used in the treatment of myasthenia gravis and to reverse the effects of muscle relaxants such as gallamine and tubocurarine. Neostigmine, unlike PHYSOSTIGMINE, does not cross the blood-brain barrier.


>  <Pathways>
Neuroscience

>  <Target>
ChE inhibitor

>  <Receptor>
ChE

>  <Reference>
1. Huang TH, et al. Yao Xue Xue Bao. 1982 Jul;17(7):534-9.

$$$$
30544-47-9
  Mrv1561503291623562D          

 26 27  0  0  0  0            999 V2000
   -1.4289   -3.3000    0.0000 C   0  0  0  0  0  0  0  0  0  0  0  0
   -0.7145   -2.8875    0.0000 C   0  0  0  0  0  0  0  0  0  0  0  0
   -0.0000   -3.3000    0.0000 C   0  0  0  0  0  0  0  0  0  0  0  0
   -0.0000   -4.1250    0.0000 C   0  0  0  0  0  0  0  0  0  0  0  0
   -0.7145   -4.5375    0.0000 C   0  0  0  0  0  0  0  0  0  0  0  0
   -1.4289   -4.1250    0.0000 C   0  0  0  0  0  0  0  0  0  0  0  0
    0.7145   -2.8875    0.0000 C   0  0  0  0  0  0  0  0  0  0  0  0
    1.4289   -3.3000    0.0000 O   0  0  0  0  0  0  0  0  0  0  0  0
    2.1434   -2.8875    0.0000 C   0  0  0  0  0  0  0  0  0  0  0  0
    2.8579   -3.3000    0.0000 C   0  0  0  0  0  0  0  0  0  0  0  0
    3.5724   -2.8875    0.0000 O   0  0  0  0  0  0  0  0  0  0  0  0
    4.2868   -3.3000    0.0000 C   0  0  0  0  0  0  0  0  0  0  0  0
    5.0013   -2.8875    0.0000 C   0  0  0  0  0  0  0  0  0  0  0  0
    5.7158   -3.3000    0.0000 O   0  0  0  0  0  0  0  0  0  0  0  0
    0.7145   -2.0625    0.0000 O   0  0  0  0  0  0  0  0  0  0  0  0
   -0.7145   -2.0625    0.0000 N   0  0  0  0  0  0  0  0  0  0  0  0
   -1.4289   -1.6500    0.0000 C   0  0  0  0  0  0  0  0  0  0  0  0
   -2.1434   -2.0625    0.0000 C   0  0  0  0  0  0  0  0  0  0  0  0
   -2.8579   -1.6500    0.0000 C   0  0  0  0  0  0  0  0  0  0  0  0
   -2.8579   -0.8250    0.0000 C   0  0  0  0  0  0  0  0  0  0  0  0
   -2.1434   -0.4125    0.0000 C   0  0  0  0  0  0  0  0  0  0  0  0
   -1.4289   -0.8250    0.0000 C   0  0  0  0  0  0  0  0  0  0  0  0
   -2.1434    0.4125    0.0000 C   0  0  0  0  0  0  0  0  0  0  0  0
   -2.1434    1.2375    0.0000 F   0  0  0  0  0  0  0  0  0  0  0  0
   -1.3184    0.4125    0.0000 F   0  0  0  0  0  0  0  0  0  0  0  0
   -2.9684    0.4125    0.0000 F   0  0  0  0  0  0  0  0  0  0  0  0
  1  2  2  0  0  0  0
  2  3  1  0  0  0  0
  3  4  2  0  0  0  0
  4  5  1  0  0  0  0
  5  6  2  0  0  0  0
  1  6  1  0  0  0  0
  3  7  1  0  0  0  0
  7  8  1  0  0  0  0
  8  9  1  0  0  0  0
  9 10  1  0  0  0  0
 10 11  1  0  0  0  0
 11 12  1  0  0  0  0
 12 13  1  0  0  0  0
 13 14  1  0  0  0  0
  7 15  2  0  0  0  0
  2 16  1  0  0  0  0
 16 17  1  0  0  0  0
 17 18  2  0  0  0  0
 18 19  1  0  0  0  0
 19 20  2  0  0  0  0
 20 21  1  0  0  0  0
 21 22  2  0  0  0  0
 17 22  1  0  0  0  0
 21 23  1  0  0  0  0
 23 24  1  0  0  0  0
 23 25  1  0  0  0  0
 23 26  1  0  0  0  0
M  END
>  <Name>
Etofenamate

>  <CAS>
30544-47-9

>  <Formula>
C18H18F3NO4

>  <MolWt>
369.34 

>  <Bioactivity>
Etofenamate is a non-steroidal anti-inflammatory drug used for the treatment joint and muscular pain.

>  <Pathways>
Neuroscience

>  <Target>
COX inhibitor

>  <Receptor>
Prostaglandin G/H synthase

>  <Reference>
1. Bender T, et al. Arzneimittelforschung. 2001;51(6):489-92.

$$$$
68-23-5
  Mrv1561503291623562D          

 22 25  0  0  1  0            999 V2000
    3.6826    0.6076    0.0000 C   0  0  1  0  0  0  0  0  0  0  0  0
    3.9629   -0.1684    0.0000 C   0  0  1  0  0  0  0  0  0  0  0  0
    4.7875   -0.1416    0.0000 C   0  0  1  0  0  0  0  0  0  0  0  0
    5.5996   -0.2868    0.0000 C   0  0  0  0  0  0  0  0  0  0  0  0
    6.4118   -0.4320    0.0000 C   0  0  0  0  0  0  0  0  0  0  0  0
    4.7280   -0.9644    0.0000 O   0  0  0  0  0  0  0  0  0  0  0  0
    5.0168    0.6509    0.0000 C   0  0  0  0  0  0  0  0  0  0  0  0
    4.3340    1.1139    0.0000 C   0  0  0  0  0  0  0  0  0  0  0  0
    3.4311   -0.7991    0.0000 C   0  0  0  0  0  0  0  0  0  0  0  0
    2.6190   -0.6539    0.0000 C   0  0  0  0  0  0  0  0  0  0  0  0
    2.3387    0.1221    0.0000 C   0  0  1  0  0  0  0  0  0  0  0  0
    2.8705    0.7528    0.0000 C   0  0  1  0  0  0  0  0  0  0  0  0
    2.5902    1.5287    0.0000 C   0  0  0  0  0  0  0  0  0  0  0  0
    1.7781    1.6739    0.0000 C   0  0  0  0  0  0  0  0  0  0  0  0
    1.2463    1.0432    0.0000 C   0  0  0  0  0  0  0  0  0  0  0  0
    1.5266    0.2673    0.0000 C   0  0  0  0  0  0  0  0  0  0  0  0
    0.9948   -0.3634    0.0000 C   0  0  0  0  0  0  0  0  0  0  0  0
    0.1827   -0.2182    0.0000 C   0  0  0  0  0  0  0  0  0  0  0  0
   -0.0976    0.5577    0.0000 C   0  0  0  0  0  0  0  0  0  0  0  0
    0.4342    1.1884    0.0000 C   0  0  0  0  0  0  0  0  0  0  0  0
   -0.9098    0.7029    0.0000 O   0  0  0  0  0  0  0  0  0  0  0  0
    4.3228   -0.9107    0.0000 C   0  0  0  0  0  0  0  0  0  0  0  0
  1  2  1  0  0  0  0
  2  3  1  0  0  0  0
  3  4  1  1  0  0  0
  4  5  3  0  0  0  0
  3  6  1  6  0  0  0
  3  7  1  0  0  0  0
  7  8  1  0  0  0  0
  1  8  1  6  0  0  0
  2  9  1  0  0  0  0
  9 10  1  0  0  0  0
 10 11  1  0  0  0  0
 11 12  1  0  0  0  0
  1 12  1  0  0  0  0
 12 13  1  1  0  0  0
 13 14  1  0  0  0  0
 14 15  1  0  0  0  0
 15 16  2  0  0  0  0
 11 16  1  6  0  0  0
 16 17  1  0  0  0  0
 17 18  1  0  0  0  0
 18 19  1  0  0  0  0
 19 20  1  0  0  0  0
 15 20  1  0  0  0  0
 19 21  2  0  0  0  0
  2 22  1  6  0  0  0
M  END
>  <Name>
Norethynodrel

>  <CAS>
68-23-5

>  <Formula>
C20H26O2

>  <MolWt>
298.42 

>  <Bioactivity>
A synthetic progestational hormone with actions and uses similar to those of PROGESTERONE. It has been used in the treatment of functional uterine bleeding and endometriosis. As a contraceptive, it has usually been administered in combination with MESTRANOL. 

>  <Pathways>
Endocrinology/ Hormones

>  <Target>
Estrogen/Progestogen Receptor agonist

>  <Receptor>
Estrogen/progestogen Receptor

>  <Reference>
1. Edgren RA. Steroids. 1994 Jan;59(1):58-9.

$$$$
2062-78-4
  Mrv1561503291623562D          

 34 38  0  0  0  0            999 V2000
    3.2789    1.2375    0.0000 C   0  0  0  0  0  0  0  0  0  0  0  0
    3.9934    0.8250    0.0000 C   0  0  0  0  0  0  0  0  0  0  0  0
    3.9934    0.0000    0.0000 C   0  0  0  0  0  0  0  0  0  0  0  0
    3.2789   -0.4125    0.0000 C   0  0  0  0  0  0  0  0  0  0  0  0
    2.5645   -0.0000    0.0000 C   0  0  0  0  0  0  0  0  0  0  0  0
    2.5645    0.8250    0.0000 C   0  0  0  0  0  0  0  0  0  0  0  0
    1.7798    1.0799    0.0000 N   0  0  0  0  0  0  0  0  0  0  0  0
    1.5249    1.8646    0.0000 C   0  0  0  0  0  0  0  0  0  0  0  0
    0.7179    2.0361    0.0000 C   0  0  0  0  0  0  0  0  0  0  0  0
    0.4630    2.8207    0.0000 C   0  0  0  0  0  0  0  0  0  0  0  0
    1.0150    3.4338    0.0000 N   0  0  0  0  0  0  0  0  0  0  0  0
    0.7601    4.2184    0.0000 C   0  0  0  0  0  0  0  0  0  0  0  0
   -0.0469    4.3900    0.0000 C   0  0  0  0  0  0  0  0  0  0  0  0
   -0.3018    5.1746    0.0000 C   0  0  0  0  0  0  0  0  0  0  0  0
   -1.1088    5.3461    0.0000 C   0  0  0  0  0  0  0  0  0  0  0  0
   -1.3637    6.1307    0.0000 C   0  0  0  0  0  0  0  0  0  0  0  0
   -2.1707    6.3023    0.0000 C   0  0  0  0  0  0  0  0  0  0  0  0
   -2.4257    7.0869    0.0000 C   0  0  0  0  0  0  0  0  0  0  0  0
   -1.8736    7.7000    0.0000 C   0  0  0  0  0  0  0  0  0  0  0  0
   -1.0666    7.5284    0.0000 C   0  0  0  0  0  0  0  0  0  0  0  0
   -0.8117    6.7438    0.0000 C   0  0  0  0  0  0  0  0  0  0  0  0
   -2.1286    8.4846    0.0000 F   0  0  0  0  0  0  0  0  0  0  0  0
   -1.6608    4.7330    0.0000 C   0  0  0  0  0  0  0  0  0  0  0  0
   -1.4059    3.9484    0.0000 C   0  0  0  0  0  0  0  0  0  0  0  0
   -1.9579    3.3353    0.0000 C   0  0  0  0  0  0  0  0  0  0  0  0
   -2.7649    3.5068    0.0000 C   0  0  0  0  0  0  0  0  0  0  0  0
   -3.3169    2.8937    0.0000 F   0  0  0  0  0  0  0  0  0  0  0  0
   -3.0198    4.2914    0.0000 C   0  0  0  0  0  0  0  0  0  0  0  0
   -2.4678    4.9045    0.0000 C   0  0  0  0  0  0  0  0  0  0  0  0
    1.8220    3.2623    0.0000 C   0  0  0  0  0  0  0  0  0  0  0  0
    2.0769    2.4777    0.0000 C   0  0  0  0  0  0  0  0  0  0  0  0
    1.2949    0.4125    0.0000 C   0  0  0  0  0  0  0  0  0  0  0  0
    1.7798   -0.2549    0.0000 N   0  0  0  0  0  0  0  0  0  0  0  0
    0.4699    0.4125    0.0000 O   0  0  0  0  0  0  0  0  0  0  0  0
  1  2  2  0  0  0  0
  2  3  1  0  0  0  0
  3  4  2  0  0  0  0
  4  5  1  0  0  0  0
  5  6  2  0  0  0  0
  1  6  1  0  0  0  0
  6  7  1  0  0  0  0
  7  8  1  0  0  0  0
  8  9  1  0  0  0  0
  9 10  1  0  0  0  0
 10 11  1  0  0  0  0
 11 12  1  0  0  0  0
 12 13  1  0  0  0  0
 13 14  1  0  0  0  0
 14 15  1  0  0  0  0
 15 16  1  0  0  0  0
 16 17  2  0  0  0  0
 17 18  1  0  0  0  0
 18 19  2  0  0  0  0
 19 20  1  0  0  0  0
 20 21  2  0  0  0  0
 16 21  1  0  0  0  0
 19 22  1  0  0  0  0
 15 23  1  0  0  0  0
 23 24  2  0  0  0  0
 24 25  1  0  0  0  0
 25 26  2  0  0  0  0
 26 27  1  0  0  0  0
 26 28  1  0  0  0  0
 28 29  2  0  0  0  0
 23 29  1  0  0  0  0
 11 30  1  0  0  0  0
 30 31  1  0  0  0  0
  8 31  1  0  0  0  0
  7 32  1  0  0  0  0
 32 33  1  0  0  0  0
  5 33  1  0  0  0  0
 32 34  2  0  0  0  0
M  END
>  <Name>
Pimozide

>  <CAS>
2062-78-4

>  <Formula>
C28H29F2N3O

>  <MolWt>
461.55 

>  <Bioactivity>
Pimozide is a diphenylbutylpiperidine derivative and a dopamine antagonist with antipsychotic property. Pimozide selectively inhibits type 2 dopaminergic receptors in the central nervous system (CNS), thereby decreasing dopamine neurotransmission and reducing the occurrence of motor and vocal tics and delusions of parasitosis. In addition, this agent antagonizes alpha-adrenergic and 5-HT2 receptors.

>  <Pathways>
Neuroscience;Membrane Transporter/Ion Channel

>  <Target>
Dopamine Receptor antagonist;Possium Channel inhibitor

>  <Receptor>
D(2)dopamine receptor;Possium channel

>  <Reference>
1. Silva MR, et al. Pharmacol Toxicol. 2003 Jul;93(1):42-7.

$$$$
T2332
  Mrv1561503291623562D          

 31 33  0  0  0  0            999 V2000
    0.0000   -1.6500    0.0000 C   0  0  0  0  0  0  0  0  0  0  0  0
    0.7145   -1.2375    0.0000 C   0  0  0  0  0  0  0  0  0  0  0  0
    0.7145   -0.4125    0.0000 C   0  0  0  0  0  0  0  0  0  0  0  0
   -0.0000    0.0000    0.0000 C   0  0  0  0  0  0  0  0  0  0  0  0
   -0.7145   -0.4125    0.0000 C   0  0  0  0  0  0  0  0  0  0  0  0
   -0.7145   -1.2375    0.0000 C   0  0  0  0  0  0  0  0  0  0  0  0
   -1.4289   -1.6500    0.0000 C   0  0  0  0  0  0  0  0  0  0  0  0
   -2.1434   -1.2375    0.0000 C   0  0  0  0  0  0  0  0  0  0  0  0
   -2.8579   -1.6500    0.0000 C   0  0  0  0  0  0  0  0  0  0  0  0
   -2.8579   -2.4750    0.0000 F   0  0  0  0  0  0  0  0  0  0  0  0
   -3.5724   -1.2375    0.0000 C   0  0  0  0  0  0  0  0  0  0  0  0
   -3.5724   -0.4125    0.0000 C   0  0  0  0  0  0  0  0  0  0  0  0
   -2.8579   -0.0000    0.0000 C   0  0  0  0  0  0  0  0  0  0  0  0
   -2.1434   -0.4125    0.0000 C   0  0  0  0  0  0  0  0  0  0  0  0
   -4.2868   -1.6500    0.0000 Cl  0  0  0  0  0  0  0  0  0  0  0  0
   -1.4289   -0.0000    0.0000 O   0  0  0  0  0  0  0  0  0  0  0  0
   -1.4289    0.8250    0.0000 C   0  0  0  0  0  0  0  0  0  0  0  0
    1.4289    0.0000    0.0000 N   0  0  0  0  0  0  0  0  0  0  0  0
    2.1434   -0.4125    0.0000 C   0  0  0  0  0  0  0  0  0  0  0  0
    2.1434   -1.2375    0.0000 C   0  0  0  0  0  0  0  0  0  0  0  0
    1.4289   -1.6500    0.0000 C   0  0  0  0  0  0  0  0  0  0  0  0
    1.4289   -2.4750    0.0000 O   0  0  0  0  0  0  0  0  0  0  0  0
    2.8579   -1.6500    0.0000 C   0  0  0  0  0  0  0  0  0  0  0  0
    2.8579   -2.4750    0.0000 O   0  0  0  0  0  0  0  0  0  0  0  0
    3.5724   -1.2375    0.0000 O   0  0  0  0  0  0  0  0  0  0  0  0
    1.4289    0.8250    0.0000 C   0  0  0  0  0  0  0  0  0  0  0  0
    2.1434    1.2375    0.0000 C   0  0  0  0  0  0  0  0  0  0  0  0
    2.1434    2.0625    0.0000 C   0  0  0  0  0  0  0  0  0  0  0  0
    2.8579    0.8250    0.0000 C   0  0  0  0  0  0  0  0  0  0  0  0
    0.7145    1.2375    0.0000 C   0  0  0  0  0  0  0  0  0  0  0  0
   -0.0000    0.8250    0.0000 O   0  0  0  0  0  0  0  0  0  0  0  0
  1  2  2  0  0  0  0
  2  3  1  0  0  0  0
  3  4  2  0  0  0  0
  4  5  1  0  0  0  0
  5  6  2  0  0  0  0
  1  6  1  0  0  0  0
  6  7  1  0  0  0  0
  7  8  1  0  0  0  0
  8  9  2  0  0  0  0
  9 10  1  0  0  0  0
  9 11  1  0  0  0  0
 11 12  2  0  0  0  0
 12 13  1  0  0  0  0
 13 14  2  0  0  0  0
  8 14  1  0  0  0  0
 11 15  1  0  0  0  0
  5 16  1  0  0  0  0
 16 17  1  0  0  0  0
  3 18  1  0  0  0  0
 18 19  1  0  0  0  0
 19 20  2  0  0  0  0
 20 21  1  0  0  0  0
  2 21  1  0  0  0  0
 21 22  2  0  0  0  0
 20 23  1  0  0  0  0
 23 24  2  0  0  0  0
 23 25  1  0  0  0  0
 18 26  1  0  0  0  0
 26 27  1  0  0  0  0
 27 28  1  0  0  0  0
 27 29  1  0  0  0  0
 26 30  1  0  0  0  0
 30 31  1  0  0  0  0
M  END
>  <Name>
Elvitegravir(GS-9137, JTK-303)

>  <CAS>
697761-98-1

>  <Formula>
C23H23ClFNO5

>  <MolWt>
447.88 

>  <Bioactivity>
Elvitegravir (GS-9137, JTK-303) is an HIV integrase inhibitor for HIV-1 IIIB, HIV-2 EHO and HIV-2 ROD with IC50 of 0.7 nM, 2.8 nM and 1.4 nM in cell-free assays, respectively.

>  <Pathways>
Proteases/Proteasome; Microbiology & Virology

>  <Target>
Integrase inhibitor

>  <Receptor>
HIV-1 

>  <Reference>
1. Shimura K, et al. J Virol. 2008, 82(2), 764-774.

$$$$
330784-47-9
  Mrv1561503291623562D          

 34 37  0  0  1  0            999 V2000
   -4.1801   -2.5366    0.0000 C   0  0  1  0  0  0  0  0  0  0  0  0
   -3.5127   -3.0215    0.0000 N   0  0  0  0  0  0  0  0  0  0  0  0
   -2.7281   -2.7666    0.0000 C   0  0  0  0  0  0  0  0  0  0  0  0
   -2.5565   -1.9596    0.0000 N   0  0  0  0  0  0  0  0  0  0  0  0
   -1.7719   -1.7047    0.0000 C   0  0  0  0  0  0  0  0  0  0  0  0
   -1.1588   -2.2567    0.0000 C   0  0  0  0  0  0  0  0  0  0  0  0
   -1.3303   -3.0637    0.0000 C   0  0  0  0  0  0  0  0  0  0  0  0
   -2.1150   -3.3186    0.0000 N   0  0  0  0  0  0  0  0  0  0  0  0
   -0.7172   -3.6157    0.0000 N   0  0  0  0  0  0  0  0  0  0  0  0
   -0.8888   -4.4227    0.0000 C   0  0  0  0  0  0  0  0  0  0  0  0
   -0.2757   -4.9747    0.0000 C   0  0  0  0  0  0  0  0  0  0  0  0
    0.5089   -4.7198    0.0000 C   0  0  0  0  0  0  0  0  0  0  0  0
    1.1220   -5.2718    0.0000 C   0  0  0  0  0  0  0  0  0  0  0  0
    0.9505   -6.0788    0.0000 C   0  0  0  0  0  0  0  0  0  0  0  0
    0.1659   -6.3337    0.0000 C   0  0  0  0  0  0  0  0  0  0  0  0
   -0.4472   -5.7817    0.0000 C   0  0  0  0  0  0  0  0  0  0  0  0
    1.5636   -6.6308    0.0000 O   0  0  0  0  0  0  0  0  0  0  0  0
    1.3921   -7.4378    0.0000 C   0  0  0  0  0  0  0  0  0  0  0  0
    1.9067   -5.0169    0.0000 Cl  0  0  0  0  0  0  0  0  0  0  0  0
   -0.3742   -2.0018    0.0000 C   0  0  0  0  0  0  0  0  0  0  0  0
    0.2389   -2.5538    0.0000 N   0  0  0  0  0  0  0  0  0  0  0  0
    1.0235   -2.2989    0.0000 C   0  0  0  0  0  0  0  0  0  0  0  0
    1.1950   -1.4919    0.0000 C   0  0  0  0  0  0  0  0  0  0  0  0
    0.5820   -0.9399    0.0000 N   0  0  0  0  0  0  0  0  0  0  0  0
    0.7535   -0.1329    0.0000 C   0  0  0  0  0  0  0  0  0  0  0  0
    1.5381    0.1220    0.0000 C   0  0  0  0  0  0  0  0  0  0  0  0
    2.1512   -0.4300    0.0000 C   0  0  0  0  0  0  0  0  0  0  0  0
    1.9797   -1.2370    0.0000 N   0  0  0  0  0  0  0  0  0  0  0  0
   -0.2027   -1.1948    0.0000 O   0  0  0  0  0  0  0  0  0  0  0  0
   -3.7676   -3.8062    0.0000 C   0  0  0  0  0  0  0  0  0  0  0  0
   -4.5926   -3.8062    0.0000 C   0  0  0  0  0  0  0  0  0  0  0  0
   -4.8476   -3.0215    0.0000 C   0  0  0  0  0  0  0  0  0  0  0  0
   -4.1801   -1.7116    0.0000 C   0  0  0  0  0  0  0  0  0  0  0  0
   -4.8946   -1.2991    0.0000 O   0  0  0  0  0  0  0  0  0  0  0  0
  1  2  1  0  0  0  0
  2  3  1  0  0  0  0
  3  4  2  0  0  0  0
  4  5  1  0  0  0  0
  5  6  2  0  0  0  0
  6  7  1  0  0  0  0
  7  8  2  0  0  0  0
  3  8  1  0  0  0  0
  7  9  1  0  0  0  0
  9 10  1  0  0  0  0
 10 11  1  0  0  0  0
 11 12  2  0  0  0  0
 12 13  1  0  0  0  0
 13 14  2  0  0  0  0
 14 15  1  0  0  0  0
 15 16  2  0  0  0  0
 11 16  1  0  0  0  0
 14 17  1  0  0  0  0
 17 18  1  0  0  0  0
 13 19  1  0  0  0  0
  6 20  1  0  0  0  0
 20 21  1  0  0  0  0
 21 22  1  0  0  0  0
 22 23  1  0  0  0  0
 23 24  2  0  0  0  0
 24 25  1  0  0  0  0
 25 26  2  0  0  0  0
 26 27  1  0  0  0  0
 27 28  2  0  0  0  0
 23 28  1  0  0  0  0
 20 29  2  0  0  0  0
  2 30  1  0  0  0  0
 30 31  1  0  0  0  0
 31 32  1  0  0  0  0
  1 32  1  0  0  0  0
  1 33  1  1  0  0  0
 33 34  1  0  0  0  0
M  END
>  <Name>
Avanafil

>  <CAS>
330784-47-9

>  <Formula>
C23H26ClN7O3

>  <MolWt>
483.95 

>  <Bioactivity>
Avanafil is a highly selective PDE5 inhibitor with IC50 of 5.2 nM, >121-fold selectivity over other PDEs.

>  <Pathways>
Metabolism

>  <Target>
PDE inhibitor

>  <Receptor>
PDE5

>  <Reference>
1. Kotera J, et al. J Urol. 2012, 188(2), 668-674.

$$$$
150683-30-0
  Mrv1561503291623562D          

 32 35  0  0  1  0            999 V2000
    0.6450   -0.5144    0.0000 C   0  0  1  0  0  0  0  0  0  0  0  0
    0.4614   -1.3187    0.0000 O   0  0  0  0  0  0  0  0  0  0  0  0
    0.0000    0.0000    0.0000 C   0  0  0  0  0  0  0  0  0  0  0  0
   -0.7145   -0.4125    0.0000 C   0  0  0  0  0  0  0  0  0  0  0  0
   -1.4289   -0.0000    0.0000 C   0  0  0  0  0  0  0  0  0  0  0  0
   -1.4289    0.8250    0.0000 C   0  0  0  0  0  0  0  0  0  0  0  0
   -0.7145    1.2375    0.0000 C   0  0  0  0  0  0  0  0  0  0  0  0
    0.0000    0.8250    0.0000 C   0  0  0  0  0  0  0  0  0  0  0  0
    0.6450    1.3394    0.0000 N   0  0  0  0  0  0  0  0  0  0  0  0
    0.4614    2.1437    0.0000 C   0  0  0  0  0  0  0  0  0  0  0  0
   -0.3269    2.3869    0.0000 O   0  0  0  0  0  0  0  0  0  0  0  0
    1.0662    2.7048    0.0000 C   0  0  0  0  0  0  0  0  0  0  0  0
    0.8826    3.5092    0.0000 C   0  0  0  0  0  0  0  0  0  0  0  0
    1.4874    4.0703    0.0000 C   0  0  0  0  0  0  0  0  0  0  0  0
    2.2757    3.8271    0.0000 C   0  0  0  0  0  0  0  0  0  0  0  0
    2.8805    4.3883    0.0000 N   0  0  0  0  0  0  0  0  0  0  0  0
    3.6688    4.1451    0.0000 C   0  0  0  0  0  0  0  0  0  0  0  0
    3.8524    3.3408    0.0000 O   0  0  0  0  0  0  0  0  0  0  0  0
    4.2736    4.7062    0.0000 C   0  0  0  0  0  0  0  0  0  0  0  0
    4.0900    5.5105    0.0000 C   0  0  0  0  0  0  0  0  0  0  0  0
    4.6948    6.0717    0.0000 C   0  0  0  0  0  0  0  0  0  0  0  0
    5.4832    5.8285    0.0000 C   0  0  0  0  0  0  0  0  0  0  0  0
    5.6667    5.0242    0.0000 C   0  0  0  0  0  0  0  0  0  0  0  0
    5.0620    4.4631    0.0000 C   0  0  0  0  0  0  0  0  0  0  0  0
    3.3017    5.7537    0.0000 C   0  0  0  0  0  0  0  0  0  0  0  0
    2.4593    3.0228    0.0000 C   0  0  0  0  0  0  0  0  0  0  0  0
    1.8545    2.4617    0.0000 C   0  0  0  0  0  0  0  0  0  0  0  0
    0.0943    3.7523    0.0000 C   0  0  0  0  0  0  0  0  0  0  0  0
    1.4493    1.1558    0.0000 C   0  0  0  0  0  0  0  0  0  0  0  0
    1.8073    0.4125    0.0000 C   0  0  0  0  0  0  0  0  0  0  0  0
    1.4493   -0.3308    0.0000 C   0  0  0  0  0  0  0  0  0  0  0  0
   -2.1434   -0.4125    0.0000 Cl  0  0  0  0  0  0  0  0  0  0  0  0
  1  2  1  1  0  0  0
  1  3  1  0  0  0  0
  3  4  2  0  0  0  0
  4  5  1  0  0  0  0
  5  6  2  0  0  0  0
  6  7  1  0  0  0  0
  7  8  2  0  0  0  0
  3  8  1  0  0  0  0
  8  9  1  0  0  0  0
  9 10  1  0  0  0  0
 10 11  2  0  0  0  0
 10 12  1  0  0  0  0
 12 13  2  0  0  0  0
 13 14  1  0  0  0  0
 14 15  2  0  0  0  0
 15 16  1  0  0  0  0
 16 17  1  0  0  0  0
 17 18  2  0  0  0  0
 17 19  1  0  0  0  0
 19 20  2  0  0  0  0
 20 21  1  0  0  0  0
 21 22  2  0  0  0  0
 22 23  1  0  0  0  0
 23 24  2  0  0  0  0
 19 24  1  0  0  0  0
 20 25  1  0  0  0  0
 15 26  1  0  0  0  0
 26 27  2  0  0  0  0
 12 27  1  0  0  0  0
 13 28  1  0  0  0  0
  9 29  1  0  0  0  0
 29 30  1  0  0  0  0
 30 31  1  0  0  0  0
  1 31  1  0  0  0  0
  5 32  1  0  0  0  0
M  END
>  <Name>
Tolvaptan

>  <CAS>
150683-30-0

>  <Formula>
C26H25ClN2O3

>  <MolWt>
448.94 

>  <Bioactivity>
Tolvaptan is an orally effective nonpeptide arginine vasopressin V2 receptor antagonist with IC50 of 3 nM, used to treat hyponatremia.

>  <Pathways>
GPCR/G Protein

>  <Target>
Vasopressin Receptor antagonist

>  <Receptor>
vasopressin receptor 2;vasopressin receptor 1a 

>  <Reference>
1. Miyazaki T, et al. Cardiovasc Drug Rev, 2007, 25(1), 1-13.

$$$$
T2324
  Mrv1561503291623562D          

 41 43  0  0  1  0            999 V2000
   -4.3537    0.5574    0.0000 C   0  0  2  0  0  0  0  0  0  0  0  0
   -4.9057   -0.0557    0.0000 C   0  0  1  0  0  0  0  0  0  0  0  0
   -4.4932   -0.7702    0.0000 O   0  0  0  0  0  0  0  0  0  0  0  0
   -3.6862   -0.5986    0.0000 C   0  0  0  0  0  0  0  0  0  0  0  0
   -3.6000    0.2219    0.0000 C   0  0  2  0  0  0  0  0  0  0  0  0
   -2.8855    0.6344    0.0000 O   0  0  0  0  0  0  0  0  0  0  0  0
   -2.1711    0.2219    0.0000 C   0  0  0  0  0  0  0  0  0  0  0  0
   -2.1711   -0.6031    0.0000 O   0  0  0  0  0  0  0  0  0  0  0  0
   -1.4566    0.6344    0.0000 N   0  0  0  0  0  0  0  0  0  0  0  0
   -0.7421    0.2219    0.0000 C   0  0  2  0  0  0  0  0  0  0  0  0
   -0.0276    0.6344    0.0000 C   0  0  2  0  0  0  0  0  0  0  0  0
   -0.0276    1.4594    0.0000 O   0  0  0  0  0  0  0  0  0  0  0  0
    0.6868    0.2219    0.0000 C   0  0  0  0  0  0  0  0  0  0  0  0
    1.4013    0.6344    0.0000 N   0  0  0  0  0  0  0  0  0  0  0  0
    2.1158    0.2219    0.0000 S   0  0  0  0  0  0  0  0  0  0  0  0
    2.5283    0.9363    0.0000 O   0  0  0  0  0  0  0  0  0  0  0  0
    1.7033   -0.4926    0.0000 O   0  0  0  0  0  0  0  0  0  0  0  0
    2.8302   -0.1906    0.0000 C   0  0  0  0  0  0  0  0  0  0  0  0
    3.5447    0.2219    0.0000 C   0  0  0  0  0  0  0  0  0  0  0  0
    4.2592   -0.1906    0.0000 C   0  0  0  0  0  0  0  0  0  0  0  0
    4.2592   -1.0156    0.0000 C   0  0  0  0  0  0  0  0  0  0  0  0
    4.9736   -1.4281    0.0000 N   0  0  0  0  0  0  0  0  0  0  0  0
    3.5447   -1.4281    0.0000 C   0  0  0  0  0  0  0  0  0  0  0  0
    2.8302   -1.0156    0.0000 C   0  0  0  0  0  0  0  0  0  0  0  0
    1.4013    1.4594    0.0000 C   0  0  0  0  0  0  0  0  0  0  0  0
    2.1158    1.8719    0.0000 C   0  0  0  0  0  0  0  0  0  0  0  0
    2.8302    1.4594    0.0000 C   0  0  0  0  0  0  0  0  0  0  0  0
    2.1158    2.6969    0.0000 C   0  0  0  0  0  0  0  0  0  0  0  0
   -0.7421   -0.6031    0.0000 C   0  0  0  0  0  0  0  0  0  0  0  0
   -0.0276   -1.0156    0.0000 C   0  0  0  0  0  0  0  0  0  0  0  0
    0.6868   -0.6031    0.0000 C   0  0  0  0  0  0  0  0  0  0  0  0
    1.4013   -1.0156    0.0000 C   0  0  0  0  0  0  0  0  0  0  0  0
    1.4013   -1.8406    0.0000 C   0  0  0  0  0  0  0  0  0  0  0  0
    0.6868   -2.2531    0.0000 C   0  0  0  0  0  0  0  0  0  0  0  0
   -0.0276   -1.8406    0.0000 C   0  0  0  0  0  0  0  0  0  0  0  0
   -5.6594    0.2799    0.0000 O   0  0  0  0  0  0  0  0  0  0  0  0
   -5.5731    1.1004    0.0000 C   0  0  0  0  0  0  0  0  0  0  0  0
   -4.7662    1.2719    0.0000 C   0  0  0  0  0  0  0  0  0  0  0  0
    7.5738   -0.2750    0.0000 C   0  0  0  0  0  0  0  0  0  0  0  0
    6.8594    0.1375    0.0000 O   0  0  0  0  0  0  0  0  0  0  0  0
    8.2883    0.1375    0.0000 C   0  0  0  0  0  0  0  0  0  0  0  0
  1  2  1  0  0  0  0
  2  3  1  1  0  0  0
  3  4  1  0  0  0  0
  4  5  1  0  0  0  0
  1  5  1  0  0  0  0
  5  6  1  1  0  0  0
  6  7  1  0  0  0  0
  7  8  2  0  0  0  0
  7  9  1  0  0  0  0
 10  9  1  6  0  0  0
 10 11  1  0  0  0  0
 11 12  1  6  0  0  0
 11 13  1  0  0  0  0
 13 14  1  0  0  0  0
 14 15  1  0  0  0  0
 15 16  2  0  0  0  0
 15 17  2  0  0  0  0
 15 18  1  0  0  0  0
 18 19  2  0  0  0  0
 19 20  1  0  0  0  0
 20 21  2  0  0  0  0
 21 22  1  0  0  0  0
 21 23  1  0  0  0  0
 23 24  2  0  0  0  0
 18 24  1  0  0  0  0
 14 25  1  0  0  0  0
 25 26  1  0  0  0  0
 26 27  1  0  0  0  0
 26 28  1  0  0  0  0
 10 29  1  0  0  0  0
 29 30  1  0  0  0  0
 30 31  2  0  0  0  0
 31 32  1  0  0  0  0
 32 33  2  0  0  0  0
 33 34  1  0  0  0  0
 34 35  2  0  0  0  0
 30 35  1  0  0  0  0
  2 36  1  0  0  0  0
 36 37  1  0  0  0  0
 37 38  1  0  0  0  0
  1 38  1  1  0  0  0
 39 40  1  0  0  0  0
 39 41  1  0  0  0  0
M  END
>  <Name>
Darunavir Ethanolate

>  <CAS>
635728-49-3

>  <Formula>
C27H37N3O7S.C2H5OH

>  <MolWt>
593.73 

>  <Bioactivity>
Darunavir Ethanolate (DRV) is a nonpeptidic HIV protease inhibitor, used to treat HIV infection.

>  <Pathways>
Proteases/Proteasome; Microbiology & Virology

>  <Target>
HIV Protease inhibitor

>  <Receptor>
HIV Protease

>  <Reference>
1. Fujimoto H, et al. Biol Pharm Bull, 2009, 32(9), 1588-1593.

$$$$
111011-63-3
  Mrv1561503291623562D          

 45 49  0  0  0  0            999 V2000
    0.3121   -5.5090    0.0000 C   0  0  0  0  0  0  0  0  0  0  0  0
    0.3121   -6.3340    0.0000 C   0  0  0  0  0  0  0  0  0  0  0  0
   -0.4024   -6.7465    0.0000 C   0  0  0  0  0  0  0  0  0  0  0  0
   -1.1168   -6.3340    0.0000 C   0  0  0  0  0  0  0  0  0  0  0  0
   -1.1168   -5.5090    0.0000 C   0  0  0  0  0  0  0  0  0  0  0  0
   -0.4024   -5.0965    0.0000 C   0  0  0  0  0  0  0  0  0  0  0  0
   -0.4024   -4.2715    0.0000 C   0  0  0  0  0  0  0  0  0  0  0  0
   -1.1168   -3.8590    0.0000 C   0  0  0  0  0  0  0  0  0  0  0  0
   -1.1168   -3.0340    0.0000 C   0  0  0  0  0  0  0  0  0  0  0  0
   -0.4024   -2.6215    0.0000 N   0  0  0  0  0  0  0  0  0  0  0  0
    0.3121   -3.0340    0.0000 C   0  0  0  0  0  0  0  0  0  0  0  0
    0.3121   -3.8590    0.0000 C   0  0  0  0  0  0  0  0  0  0  0  0
    1.0266   -4.2715    0.0000 C   0  0  0  0  0  0  0  0  0  0  0  0
    1.7410   -3.8590    0.0000 O   0  0  0  0  0  0  0  0  0  0  0  0
    2.4555   -4.2715    0.0000 C   0  0  0  0  0  0  0  0  0  0  0  0
    3.1700   -3.8590    0.0000 C   0  0  0  0  0  0  0  0  0  0  0  0
    3.8844   -4.2715    0.0000 N   0  0  0  0  0  0  0  0  0  0  0  0
    3.8844   -5.0965    0.0000 C   0  0  0  0  0  0  0  0  0  0  0  0
    4.5989   -5.5090    0.0000 C   0  0  0  0  0  0  0  0  0  0  0  0
    4.5989   -6.3340    0.0000 C   0  0  0  0  0  0  0  0  0  0  0  0
    3.8844   -6.7465    0.0000 C   0  0  0  0  0  0  0  0  0  0  0  0
    3.1700   -6.3340    0.0000 C   0  0  0  0  0  0  0  0  0  0  0  0
    3.1700   -5.5090    0.0000 C   0  0  0  0  0  0  0  0  0  0  0  0
    4.5989   -3.8590    0.0000 C   0  0  0  0  0  0  0  0  0  0  0  0
    5.3134   -4.2715    0.0000 C   0  0  0  0  0  0  0  0  0  0  0  0
    6.0279   -3.8590    0.0000 C   0  0  0  0  0  0  0  0  0  0  0  0
    6.7423   -4.2715    0.0000 C   0  0  0  0  0  0  0  0  0  0  0  0
    6.7423   -5.0965    0.0000 C   0  0  0  0  0  0  0  0  0  0  0  0
    6.0279   -5.5090    0.0000 C   0  0  0  0  0  0  0  0  0  0  0  0
    5.3134   -5.0965    0.0000 C   0  0  0  0  0  0  0  0  0  0  0  0
    1.0266   -5.0965    0.0000 O   0  0  0  0  0  0  0  0  0  0  0  0
    1.0266   -2.6215    0.0000 C   0  0  0  0  0  0  0  0  0  0  0  0
   -1.8313   -2.6215    0.0000 C   0  0  0  0  0  0  0  0  0  0  0  0
   -1.8313   -4.2715    0.0000 P   0  0  0  0  0  0  0  0  0  0  0  0
   -2.3616   -4.9034    0.0000 O   0  0  0  0  0  0  0  0  0  0  0  0
   -3.1741   -4.7602    0.0000 C   0  0  0  0  0  0  0  0  0  0  0  0
   -3.4563   -3.9849    0.0000 C   0  0  0  0  0  0  0  0  0  0  0  0
   -4.1707   -4.3974    0.0000 C   0  0  0  0  0  0  0  0  0  0  0  0
   -3.9866   -3.3529    0.0000 C   0  0  0  0  0  0  0  0  0  0  0  0
   -2.9260   -3.3529    0.0000 C   0  0  0  0  0  0  0  0  0  0  0  0
   -2.1135   -3.4962    0.0000 O   0  0  0  0  0  0  0  0  0  0  0  0
   -1.3010   -4.9034    0.0000 O   0  0  0  0  0  0  0  0  0  0  0  0
    1.0266   -6.7465    0.0000 N   0  3  0  0  0  0  0  0  0  0  0  0
    1.0266   -7.5715    0.0000 O   0  0  0  0  0  0  0  0  0  0  0  0
    1.7410   -6.3340    0.0000 O   0  5  0  0  0  0  0  0  0  0  0  0
  1  2  2  0  0  0  0
  2  3  1  0  0  0  0
  3  4  2  0  0  0  0
  4  5  1  0  0  0  0
  5  6  2  0  0  0  0
  1  6  1  0  0  0  0
  6  7  1  0  0  0  0
  7  8  1  0  0  0  0
  8  9  2  0  0  0  0
  9 10  1  0  0  0  0
 10 11  1  0  0  0  0
 11 12  2  0  0  0  0
  7 12  1  0  0  0  0
 12 13  1  0  0  0  0
 13 14  1  0  0  0  0
 14 15  1  0  0  0  0
 15 16  1  0  0  0  0
 16 17  1  0  0  0  0
 17 18  1  0  0  0  0
 18 19  2  0  0  0  0
 19 20  1  0  0  0  0
 20 21  2  0  0  0  0
 21 22  1  0  0  0  0
 22 23  2  0  0  0  0
 18 23  1  0  0  0  0
 17 24  1  0  0  0  0
 24 25  1  0  0  0  0
 25 26  2  0  0  0  0
 26 27  1  0  0  0  0
 27 28  2  0  0  0  0
 28 29  1  0  0  0  0
 29 30  2  0  0  0  0
 25 30  1  0  0  0  0
 13 31  2  0  0  0  0
 11 32  1  0  0  0  0
  9 33  1  0  0  0  0
  8 34  1  0  0  0  0
 34 35  1  0  0  0  0
 35 36  1  0  0  0  0
 36 37  1  0  0  0  0
 37 38  1  0  0  0  0
 37 39  1  0  0  0  0
 37 40  1  0  0  0  0
 40 41  1  0  0  0  0
 34 41  1  0  0  0  0
 34 42  2  0  0  0  0
  2 43  1  0  0  0  0
 43 44  2  0  0  0  0
 43 45  1  0  0  0  0
M  CHG  2  43   1  45  -1
M  END
>  <Name>
Efonidipine(NZ-105)

>  <CAS>
111011-63-3

>  <Formula>
C34H38N3O7P

>  <MolWt>
631.66 

>  <Bioactivity>
Efonidipine(NZ-105) is a dual T-type and L-type calcium channel blocker (CCB).

>  <Pathways>
Membrane Transporter/Ion Channel

>  <Target>
Calcium Channel inhibitor

>  <Receptor>
Calcium Channel

>  <Reference>
1. Ikeda K, et al. Tohoku J Exp Med. 2011;224(4):263-71.

$$$$
T0710
  Mrv1561503291623562D          

  7  7  0  0  0  0            999 V2000
    0.5678    1.9393    0.0000 O   0  0  0  0  0  0  0  0  0  0  0  0
    0.5678    1.1143    0.0000 C   0  0  0  0  0  0  0  0  0  0  0  0
    1.2352    0.6294    0.0000 C   0  0  0  0  0  0  0  0  0  0  0  0
    0.9803   -0.1553    0.0000 C   0  0  0  0  0  0  0  0  0  0  0  0
    0.1553   -0.1553    0.0000 O   0  0  0  0  0  0  0  0  0  0  0  0
   -0.0997    0.6294    0.0000 N   0  0  0  0  0  0  0  0  0  0  0  0
    2.0198    0.8843    0.0000 N   0  0  0  0  0  0  0  0  0  0  0  0
  1  2  2  0  0  0  0
  2  3  1  0  0  0  0
  3  4  1  0  0  0  0
  4  5  1  0  0  0  0
  5  6  1  0  0  0  0
  2  6  1  0  0  0  0
  3  7  1  0  0  0  0
M  END
>  <Name>
L-Cycloserine

>  <CAS>
339-72-0

>  <Formula>
C3H6N2O2

>  <MolWt>
102.09 

>  <Bioactivity>
Antibiotic substance produced by Streptomyces garyphalus. 

>  <Pathways>
Microbiology & Virology

>  <Target>
Antibiotic

>  <Receptor>
Others

>  <Reference>
1. Noda M, et al. J Biol Chem. 2004 Oct 29;279(44):46143-52.

$$$$
T2325
  Mrv1561503291623562D          

 40 43  0  0  0  0            999 V2000
   -0.7145    1.2375    0.0000 C   0  0  0  0  0  0  0  0  0  0  0  0
   -1.4289    0.8250    0.0000 C   0  0  0  0  0  0  0  0  0  0  0  0
   -1.4289   -0.0000    0.0000 O   0  0  0  0  0  0  0  0  0  0  0  0
   -0.7145   -0.4125    0.0000 C   0  0  0  0  0  0  0  0  0  0  0  0
   -0.7145   -1.2375    0.0000 C   0  0  0  0  0  0  0  0  0  0  0  0
   -0.0000   -1.6500    0.0000 C   0  0  0  0  0  0  0  0  0  0  0  0
    0.7145   -1.2375    0.0000 C   0  0  0  0  0  0  0  0  0  0  0  0
    0.7145   -0.4125    0.0000 C   0  0  0  0  0  0  0  0  0  0  0  0
   -0.0000   -0.0000    0.0000 C   0  0  0  0  0  0  0  0  0  0  0  0
    1.4289    0.0000    0.0000 N   0  0  0  0  0  0  0  0  0  0  0  0
    2.1434   -0.4125    0.0000 C   0  0  0  0  0  0  0  0  0  0  0  0
    2.1434   -1.2375    0.0000 C   0  0  0  0  0  0  0  0  0  0  0  0
    1.4289   -1.6500    0.0000 C   0  0  0  0  0  0  0  0  0  0  0  0
    1.4289   -2.4750    0.0000 N   0  0  0  0  0  0  0  0  0  0  0  0
    2.1434   -2.8875    0.0000 C   0  0  0  0  0  0  0  0  0  0  0  0
    2.8579   -2.4750    0.0000 C   0  0  0  0  0  0  0  0  0  0  0  0
    3.5724   -2.8875    0.0000 C   0  0  0  0  0  0  0  0  0  0  0  0
    3.5724   -3.7125    0.0000 C   0  0  0  0  0  0  0  0  0  0  0  0
    2.8579   -4.1250    0.0000 C   0  0  0  0  0  0  0  0  0  0  0  0
    2.1434   -3.7125    0.0000 C   0  0  0  0  0  0  0  0  0  0  0  0
    4.2868   -4.1250    0.0000 O   0  0  0  0  0  0  0  0  0  0  0  0
    4.2868   -4.9500    0.0000 C   0  0  0  0  0  0  0  0  0  0  0  0
    5.0013   -5.3625    0.0000 C   0  0  0  0  0  0  0  0  0  0  0  0
    5.7158   -4.9500    0.0000 C   0  0  0  0  0  0  0  0  0  0  0  0
    6.4302   -5.3625    0.0000 C   0  0  0  0  0  0  0  0  0  0  0  0
    6.4302   -6.1875    0.0000 C   0  0  0  0  0  0  0  0  0  0  0  0
    5.7158   -6.6000    0.0000 C   0  0  0  0  0  0  0  0  0  0  0  0
    5.0013   -6.1875    0.0000 N   0  0  0  0  0  0  0  0  0  0  0  0
    4.2868   -2.4750    0.0000 Cl  0  0  0  0  0  0  0  0  0  0  0  0
    2.8579   -1.6500    0.0000 C   0  0  0  0  0  0  0  0  0  0  0  0
    3.5724   -2.0625    0.0000 N   0  0  0  0  0  0  0  0  0  0  0  0
   -1.4289   -1.6500    0.0000 N   0  0  0  0  0  0  0  0  0  0  0  0
   -2.1434   -1.2375    0.0000 C   0  0  0  0  0  0  0  0  0  0  0  0
   -2.8579   -1.6500    0.0000 O   0  0  0  0  0  0  0  0  0  0  0  0
   -2.1434   -0.4125    0.0000 C   0  0  0  0  0  0  0  0  0  0  0  0
   -2.8579   -0.0000    0.0000 C   0  0  0  0  0  0  0  0  0  0  0  0
   -3.5724   -0.4125    0.0000 C   0  0  0  0  0  0  0  0  0  0  0  0
   -4.2868   -0.0000    0.0000 N   0  0  0  0  0  0  0  0  0  0  0  0
   -5.0013   -0.4125    0.0000 C   0  0  0  0  0  0  0  0  0  0  0  0
   -4.2868    0.8250    0.0000 C   0  0  0  0  0  0  0  0  0  0  0  0
  1  2  1  0  0  0  0
  2  3  1  0  0  0  0
  3  4  1  0  0  0  0
  4  5  2  0  0  0  0
  5  6  1  0  0  0  0
  6  7  2  0  0  0  0
  7  8  1  0  0  0  0
  8  9  2  0  0  0  0
  4  9  1  0  0  0  0
  8 10  1  0  0  0  0
 10 11  2  0  0  0  0
 11 12  1  0  0  0  0
 12 13  2  0  0  0  0
  7 13  1  0  0  0  0
 13 14  1  0  0  0  0
 14 15  1  0  0  0  0
 15 16  2  0  0  0  0
 16 17  1  0  0  0  0
 17 18  2  0  0  0  0
 18 19  1  0  0  0  0
 19 20  2  0  0  0  0
 15 20  1  0  0  0  0
 18 21  1  0  0  0  0
 21 22  1  0  0  0  0
 22 23  1  0  0  0  0
 23 24  2  0  0  0  0
 24 25  1  0  0  0  0
 25 26  2  0  0  0  0
 26 27  1  0  0  0  0
 27 28  2  0  0  0  0
 23 28  1  0  0  0  0
 17 29  1  0  0  0  0
 12 30  1  0  0  0  0
 30 31  3  0  0  0  0
  5 32  1  0  0  0  0
 32 33  1  0  0  0  0
 33 34  2  0  0  0  0
 35 33  1  4  0  0  0
 35 36  2  0  0  0  0
 36 37  1  0  0  0  0
 37 38  1  0  0  0  0
 38 39  1  0  0  0  0
 38 40  1  0  0  0  0
M  END
>  <Name>
Neratinib(HKI-272)

>  <CAS>
698387-09-6

>  <Formula>
C30H29ClN6O3

>  <MolWt>
557.04 

>  <Bioactivity>
Neratinib is an orally available, 6,7-disubstituted-4-anilinoquinoline-3-carbonitrile irreversible inhibitor of the HER-2 receptor tyrosine kinase with potential antineoplastic activity. Neratinib binds to the HER-2 receptor irreversibly, thereby reducing autophosphorylation in cells, apparently by targeting a cysteine residue in the ATP-binding pocket of the receptor. Treatment of cells with this agent results in inhibition of downstream signal transduction events and cell cycle regulatory pathways; arrest at the G1-S (Gap 1/DNA synthesis)-phase transition of the cell division cycle; and ultimately decreased cellular proliferation. Neratinib also inhibits the epidermal growth factor receptor (EGFR) kinase and the proliferation of EGFR-dependent cells.

>  <Pathways>
Tyrosine Kinase/Adaptors

>  <Target>
EGFR inhibitor; HER2 inhibitor

>  <Receptor>
EGFR;HER2;KDR

>  <Reference>
1. Schwab CL, et al. Gynecol Oncol. 2014 Oct;135(1):142-8.

$$$$
T1661
  Mrv1561503291623562D          

 30 33  0  0  0  0            999 V2000
    0.0000    2.4750    0.0000 C   0  0  0  0  0  0  0  0  0  0  0  0
   -0.7145    2.0625    0.0000 C   0  0  0  0  0  0  0  0  0  0  0  0
   -1.4289    2.4750    0.0000 C   0  0  0  0  0  0  0  0  0  0  0  0
   -2.1434    2.0625    0.0000 C   0  0  0  0  0  0  0  0  0  0  0  0
   -2.8579    2.4750    0.0000 C   0  0  0  0  0  0  0  0  0  0  0  0
   -2.8579    3.3000    0.0000 C   0  0  0  0  0  0  0  0  0  0  0  0
   -2.1434    3.7125    0.0000 C   0  0  0  0  0  0  0  0  0  0  0  0
   -1.4289    3.3000    0.0000 C   0  0  0  0  0  0  0  0  0  0  0  0
   -0.7145    3.7125    0.0000 Cl  0  0  0  0  0  0  0  0  0  0  0  0
   -2.1434    4.5375    0.0000 F   0  0  0  0  0  0  0  0  0  0  0  0
   -2.1434    1.2375    0.0000 Cl  0  0  0  0  0  0  0  0  0  0  0  0
   -0.7145    1.2375    0.0000 O   0  0  0  0  0  0  0  0  0  0  0  0
   -0.0000    0.8250    0.0000 C   0  0  0  0  0  0  0  0  0  0  0  0
    0.7145    1.2375    0.0000 C   0  0  0  0  0  0  0  0  0  0  0  0
    1.4289    0.8250    0.0000 N   0  0  0  0  0  0  0  0  0  0  0  0
    1.4289   -0.0000    0.0000 C   0  0  0  0  0  0  0  0  0  0  0  0
    0.7145   -0.4125    0.0000 C   0  0  0  0  0  0  0  0  0  0  0  0
   -0.0000    0.0000    0.0000 C   0  0  0  0  0  0  0  0  0  0  0  0
    0.7145   -1.2375    0.0000 C   0  0  0  0  0  0  0  0  0  0  0  0
    1.3819   -1.7224    0.0000 C   0  0  0  0  0  0  0  0  0  0  0  0
    1.1270   -2.5070    0.0000 N   0  0  0  0  0  0  0  0  0  0  0  0
    0.3020   -2.5070    0.0000 N   0  0  0  0  0  0  0  0  0  0  0  0
    0.0470   -1.7224    0.0000 C   0  0  0  0  0  0  0  0  0  0  0  0
    1.6119   -3.1745    0.0000 C   0  0  0  0  0  0  0  0  0  0  0  0
    2.4324   -3.0882    0.0000 C   0  0  0  0  0  0  0  0  0  0  0  0
    2.9173   -3.7557    0.0000 C   0  0  0  0  0  0  0  0  0  0  0  0
    2.5817   -4.5094    0.0000 N   0  0  0  0  0  0  0  0  0  0  0  0
    1.7613   -4.5956    0.0000 C   0  0  0  0  0  0  0  0  0  0  0  0
    1.2763   -3.9282    0.0000 C   0  0  0  0  0  0  0  0  0  0  0  0
    0.7145    2.0625    0.0000 N   0  0  0  0  0  0  0  0  0  0  0  0
  1  2  1  0  0  0  0
  2  3  1  0  0  0  0
  3  4  2  0  0  0  0
  4  5  1  0  0  0  0
  5  6  2  0  0  0  0
  6  7  1  0  0  0  0
  7  8  2  0  0  0  0
  3  8  1  0  0  0  0
  8  9  1  0  0  0  0
  7 10  1  0  0  0  0
  4 11  1  0  0  0  0
  2 12  1  0  0  0  0
 12 13  1  0  0  0  0
 13 14  2  0  0  0  0
 14 15  1  0  0  0  0
 15 16  2  0  0  0  0
 16 17  1  0  0  0  0
 17 18  2  0  0  0  0
 13 18  1  0  0  0  0
 17 19  1  0  0  0  0
 19 20  2  0  0  0  0
 20 21  1  0  0  0  0
 21 22  1  0  0  0  0
 22 23  2  0  0  0  0
 19 23  1  0  0  0  0
 21 24  1  0  0  0  0
 24 25  1  0  0  0  0
 25 26  1  0  0  0  0
 26 27  1  0  0  0  0
 27 28  1  0  0  0  0
 28 29  1  0  0  0  0
 24 29  1  0  0  0  0
 14 30  1  0  0  0  0
M  END
>  <Name>
Crizotinib (PF-02341066)

>  <CAS>
877399-52-5

>  <Formula>
C21H22Cl2FN5O

>  <MolWt>
450.34 

>  <Bioactivity>
Crizotinib an inhibitor of receptor tyrosine kinase for the treatment of non-small cell lung cancer (NSCLC). Verification of the presence of ALK fusion gene is done by Abbott Molecular's Vysis ALK Break Apart FISH Probe Kit. This verification is used to select for patients suitable for treatment. FDA approved in August 26, 2011.


>  <Pathways>
Tyrosine Kinase/Adaptors

>  <Target>
TGF-beta/Smad inhibitor;c-MET inhibitor

>  <Receptor>
ALK ;c-MET

>  <Reference>
1. Zou HY, et al. Cancer Res. 2007, 67(9), 4408-4417.

$$$$
T1071
  Mrv1561503291623562D          

 13 13  0  0  1  0            999 V2000
    0.7145    2.0625    0.0000 C   0  0  2  0  0  0  0  0  0  0  0  0
    0.7145    1.2375    0.0000 C   0  0  0  0  0  0  0  0  0  0  0  0
    1.4289    0.8250    0.0000 C   0  0  0  0  0  0  0  0  0  0  0  0
    1.4289    0.0000    0.0000 C   0  0  0  0  0  0  0  0  0  0  0  0
    0.7145   -0.4125    0.0000 C   0  0  0  0  0  0  0  0  0  0  0  0
    0.7145   -1.2375    0.0000 O   0  0  0  0  0  0  0  0  0  0  0  0
    0.0000   -0.0000    0.0000 C   0  0  0  0  0  0  0  0  0  0  0  0
    0.0000    0.8250    0.0000 C   0  0  0  0  0  0  0  0  0  0  0  0
    2.1434   -0.4125    0.0000 O   0  0  0  0  0  0  0  0  0  0  0  0
   -0.0000    2.4750    0.0000 C   0  0  0  0  0  0  0  0  0  0  0  0
   -0.0000    3.3000    0.0000 N   0  0  0  0  0  0  0  0  0  0  0  0
   -0.7145    3.7125    0.0000 C   0  0  0  0  0  0  0  0  0  0  0  0
    1.4289    2.4750    0.0000 O   0  0  0  0  0  0  0  0  0  0  0  0
  1  2  1  0  0  0  0
  2  3  2  0  0  0  0
  3  4  1  0  0  0  0
  4  5  2  0  0  0  0
  5  6  1  0  0  0  0
  5  7  1  0  0  0  0
  7  8  2  0  0  0  0
  2  8  1  0  0  0  0
  4  9  1  0  0  0  0
  1 10  1  0  0  0  0
 10 11  1  0  0  0  0
 11 12  1  0  0  0  0
  1 13  1  6  0  0  0
M  END
>  <Name>
L-Adrenaline

>  <CAS>
51-43-4

>  <Formula>
C9H13NO3

>  <MolWt>
183.20 

>  <Bioactivity>
The active sympathomimetic hormone from the ADRENAL MEDULLA. It stimulates both the alpha- and beta- adrenergic systems, causes systemic VASOCONSTRICTION and gastrointestinal relaxation, stimulates the HEART, and dilates BRONCHI and cerebral vessels. It is used in ASTHMA and CARDIAC FAILURE and to delay absorption of local ANESTHETICS.


>  <Pathways>
GPCR/G Protein

>  <Target>
Adrenergic Receptor antagonist

>  <Receptor>
PAH;TNF;Adrenergic receptor

>  <Reference>
1. Sanbe A, et al. Br J Pharmacol. 2007 Oct;152(3):332-40. 

$$$$
T1621
  Mrv1561503291623562D          

 42 45  0  0  0  0            999 V2000
    0.0000   -0.8250    0.0000 C   0  0  0  0  0  0  0  0  0  0  0  0
    0.0000    0.0000    0.0000 S   0  0  0  0  0  0  0  0  0  0  0  0
    0.0000    0.8250    0.0000 O   0  0  0  0  0  0  0  0  0  0  0  0
    0.8250   -0.0000    0.0000 O   0  0  0  0  0  0  0  0  0  0  0  0
   -0.8250    0.0000    0.0000 O   0  0  0  0  0  0  0  0  0  0  0  0
    4.8541   -0.6020    0.0000 C   0  0  0  0  0  0  0  0  0  0  0  0
    4.8541   -1.4270    0.0000 C   0  0  0  0  0  0  0  0  0  0  0  0
    5.5686   -1.8395    0.0000 N   0  0  0  0  0  0  0  0  0  0  0  0
    5.5686   -2.6645    0.0000 C   0  0  0  0  0  0  0  0  0  0  0  0
    6.2831   -3.0770    0.0000 N   0  0  0  0  0  0  0  0  0  0  0  0
    6.2831   -3.9020    0.0000 C   0  0  0  0  0  0  0  0  0  0  0  0
    5.5686   -4.3145    0.0000 C   0  0  0  0  0  0  0  0  0  0  0  0
    4.8541   -3.9020    0.0000 C   0  0  0  0  0  0  0  0  0  0  0  0
    4.8541   -3.0770    0.0000 N   0  0  0  0  0  0  0  0  0  0  0  0
    4.1397   -4.3145    0.0000 C   0  0  0  0  0  0  0  0  0  0  0  0
    4.1397   -5.1395    0.0000 C   0  0  0  0  0  0  0  0  0  0  0  0
    3.4252   -5.5520    0.0000 N   0  0  0  0  0  0  0  0  0  0  0  0
    2.7107   -5.1395    0.0000 C   0  0  0  0  0  0  0  0  0  0  0  0
    2.7107   -4.3145    0.0000 C   0  0  0  0  0  0  0  0  0  0  0  0
    3.4252   -3.9020    0.0000 C   0  0  0  0  0  0  0  0  0  0  0  0
    4.1397   -1.8395    0.0000 C   0  0  0  0  0  0  0  0  0  0  0  0
    3.4252   -1.4270    0.0000 C   0  0  0  0  0  0  0  0  0  0  0  0
    3.4252   -0.6020    0.0000 C   0  0  0  0  0  0  0  0  0  0  0  0
    4.1397   -0.1895    0.0000 C   0  0  0  0  0  0  0  0  0  0  0  0
    4.1397    0.6355    0.0000 N   0  0  0  0  0  0  0  0  0  0  0  0
    3.4252    1.0480    0.0000 C   0  0  0  0  0  0  0  0  0  0  0  0
    2.7107    0.6355    0.0000 O   0  0  0  0  0  0  0  0  0  0  0  0
    3.4252    1.8730    0.0000 C   0  0  0  0  0  0  0  0  0  0  0  0
    2.7107    2.2855    0.0000 C   0  0  0  0  0  0  0  0  0  0  0  0
    2.7107    3.1105    0.0000 C   0  0  0  0  0  0  0  0  0  0  0  0
    3.4252    3.5230    0.0000 C   0  0  0  0  0  0  0  0  0  0  0  0
    4.1397    3.1105    0.0000 C   0  0  0  0  0  0  0  0  0  0  0  0
    4.1397    2.2855    0.0000 C   0  0  0  0  0  0  0  0  0  0  0  0
    3.4252    4.3480    0.0000 C   0  0  0  0  0  0  0  0  0  0  0  0
    4.1397    4.7605    0.0000 N   0  0  0  0  0  0  0  0  0  0  0  0
    4.1397    5.5855    0.0000 C   0  0  0  0  0  0  0  0  0  0  0  0
    4.8541    5.9980    0.0000 C   0  0  0  0  0  0  0  0  0  0  0  0
    5.5686    5.5855    0.0000 N   0  0  0  0  0  0  0  0  0  0  0  0
    5.5686    4.7605    0.0000 C   0  0  0  0  0  0  0  0  0  0  0  0
    4.8541    4.3480    0.0000 C   0  0  0  0  0  0  0  0  0  0  0  0
    6.2831    5.9980    0.0000 C   0  0  0  0  0  0  0  0  0  0  0  0
    4.1397   -2.6645    0.0000 C   0  0  0  0  0  0  0  0  0  0  0  0
  1  2  1  0  0  0  0
  2  3  2  0  0  0  0
  2  4  2  0  0  0  0
  2  5  1  0  0  0  0
  6  7  2  0  0  0  0
  7  8  1  0  0  0  0
  8  9  1  0  0  0  0
  9 10  2  0  0  0  0
 10 11  1  0  0  0  0
 11 12  2  0  0  0  0
 12 13  1  0  0  0  0
 13 14  2  0  0  0  0
  9 14  1  0  0  0  0
 13 15  1  0  0  0  0
 15 16  2  0  0  0  0
 16 17  1  0  0  0  0
 17 18  2  0  0  0  0
 18 19  1  0  0  0  0
 19 20  2  0  0  0  0
 15 20  1  0  0  0  0
  7 21  1  0  0  0  0
 21 22  2  0  0  0  0
 22 23  1  0  0  0  0
 23 24  2  0  0  0  0
  6 24  1  0  0  0  0
 24 25  1  0  0  0  0
 25 26  1  0  0  0  0
 26 27  2  0  0  0  0
 26 28  1  0  0  0  0
 28 29  2  0  0  0  0
 29 30  1  0  0  0  0
 30 31  2  0  0  0  0
 31 32  1  0  0  0  0
 32 33  2  0  0  0  0
 28 33  1  0  0  0  0
 31 34  1  0  0  0  0
 34 35  1  0  0  0  0
 35 36  1  0  0  0  0
 36 37  1  0  0  0  0
 37 38  1  0  0  0  0
 38 39  1  0  0  0  0
 39 40  1  0  0  0  0
 35 40  1  0  0  0  0
 38 41  1  0  0  0  0
 21 42  1  0  0  0  0
M  END
>  <Name>
Imatinib Mesylate (STI571)

>  <CAS>
220127-57-1

>  <Formula>
C29H31N7O.CH4SO3

>  <MolWt>
589.71 

>  <Bioactivity>
Imatinib mesylate is a tyrosine kinase inhibitor IC50 value of 100 nM, 100 nM, 600 nM for v-Abl, c-kit, PDGFR, respectively [1].
Tyrosine kinase is an enzyme which is a subclass of protein kinase and plays an important role in transferring a phosphate group from ATP to a protein in cells. It is shown that tyrosine kinase plays a pivotal role in the management of disorders in which activation of c-Abl, PDGFR, or c-Kit signaling. Recently, the role of tyrosine kinases in the modulation of growth factor signaling are received more and more attention and gradually become an especial important target.

>  <Pathways>
Tyrosine Kinase/Adaptors

>  <Target>
Bcr-Abl inhibitor;c-kit inhibitor; PDGFR inhibitor

>  <Receptor>
v-Abl; c-Kit; PDGFR

>  <Reference>
1. Niu CC, et al. Leuk Res. 2013 Nov;37(11):1532-7. 

$$$$
51-83-2
  Mrv1561503291623562D          

 11  9  0  0  0  0            999 V2000
    0.4125    0.5716    0.0000 C   0  0  0  0  0  0  0  0  0  0  0  0
   -0.0000    1.2860    0.0000 N   0  3  0  0  0  0  0  0  0  0  0  0
   -0.4125    2.0005    0.0000 C   0  0  0  0  0  0  0  0  0  0  0  0
   -0.7145    0.8735    0.0000 C   0  0  0  0  0  0  0  0  0  0  0  0
    0.7145    1.6985    0.0000 C   0  0  0  0  0  0  0  0  0  0  0  0
    0.0000   -0.1429    0.0000 C   0  0  0  0  0  0  0  0  0  0  0  0
    0.4125   -0.8574    0.0000 O   0  0  0  0  0  0  0  0  0  0  0  0
    0.0000   -1.5718    0.0000 C   0  0  0  0  0  0  0  0  0  0  0  0
    0.4125   -2.2863    0.0000 N   0  0  0  0  0  0  0  0  0  0  0  0
   -0.8250   -1.5718    0.0000 O   0  0  0  0  0  0  0  0  0  0  0  0
    3.0716    0.0000    0.0000 Cl  0  5  0  0  0  0  0  0  0  0  0  0
  1  2  1  0  0  0  0
  2  3  1  0  0  0  0
  2  4  1  0  0  0  0
  2  5  1  0  0  0  0
  1  6  1  0  0  0  0
  6  7  1  0  0  0  0
  7  8  1  0  0  0  0
  8  9  1  0  0  0  0
  8 10  2  0  0  0  0
M  CHG  2   2   1  11  -1
M  END
>  <Name>
Carbachol

>  <CAS>
51-83-2

>  <Formula>
C6H15ClN2O2

>  <MolWt>
182.65 

>  <Bioactivity>
A slowly hydrolyzed cholinergic agonist that acts at both muscarinic and nicotinic receptors.

>  <Pathways>
Neuroscience

>  <Target>
AChR antagonist

>  <Receptor>
Muscarinic AChR

>  <Reference>
1. Weiner DM, et al. Am J Pharmacogenomics. 2004;4(2):119-28.

$$$$
68-19-9
  Mrv1561503291623562D          

 93 98  0  0  0  0            999 V2000
    8.0356   -4.3529    0.0000 C   0  0  0  0  0  0  0  0  0  0  0  0
    7.2354   -4.5534    0.0000 C   0  0  0  0  0  0  0  0  0  0  0  0
    7.0089   -5.3468    0.0000 C   0  0  0  0  0  0  0  0  0  0  0  0
    6.2086   -5.5473    0.0000 C   0  0  0  0  0  0  0  0  0  0  0  0
    5.6348   -4.9545    0.0000 C   0  0  0  0  0  0  0  0  0  0  0  0
    5.8613   -4.1612    0.0000 C   0  0  0  0  0  0  0  0  0  0  0  0
    6.6616   -3.9607    0.0000 C   0  0  0  0  0  0  0  0  0  0  0  0
    6.8881   -3.1674    0.0000 C   0  0  0  0  0  0  0  0  0  0  0  0
    4.8938   -5.3170    0.0000 N   0  0  0  0  0  0  0  0  0  0  0  0
    5.0095   -6.1338    0.0000 C   0  0  0  0  0  0  0  0  0  0  0  0
    5.8222   -6.2762    0.0000 N   0  0  0  0  0  0  0  0  0  0  0  0
    4.1649   -4.9305    0.0000 C   0  0  0  0  0  0  0  0  0  0  0  0
    3.4238   -5.2931    0.0000 C   0  0  0  0  0  0  0  0  0  0  0  0
    2.8500   -4.7003    0.0000 C   0  0  0  0  0  0  0  0  0  0  0  0
    3.2365   -3.9714    0.0000 C   0  0  0  0  0  0  0  0  0  0  0  0
    4.0491   -4.1137    0.0000 O   0  0  0  0  0  0  0  0  0  0  0  0
    2.8740   -3.2303    0.0000 C   0  0  0  0  0  0  0  0  0  0  0  0
    3.3345   -2.5458    0.0000 O   0  0  0  0  0  0  0  0  0  0  0  0
    2.0332   -4.8160    0.0000 O   0  0  0  0  0  0  0  0  0  0  0  0
    1.5245   -4.1665    0.0000 P   0  0  0  0  0  0  0  0  0  0  0  0
    2.1740   -3.6578    0.0000 O   0  0  0  0  0  0  0  0  0  0  0  0
    0.8750   -4.6752    0.0000 O   0  5  0  0  0  0  0  0  0  0  0  0
    1.0158   -3.5170    0.0000 O   0  0  0  0  0  0  0  0  0  0  0  0
    0.1990   -3.6328    0.0000 C   0  0  0  0  0  0  0  0  0  0  0  0
   -0.1092   -4.3981    0.0000 C   0  0  0  0  0  0  0  0  0  0  0  0
   -0.3097   -2.9833    0.0000 C   0  0  0  0  0  0  0  0  0  0  0  0
   -1.1265   -3.0990    0.0000 N   0  0  0  0  0  0  0  0  0  0  0  0
   -1.6352   -2.4495    0.0000 C   0  0  0  0  0  0  0  0  0  0  0  0
   -2.4520   -2.5653    0.0000 O   0  0  0  0  0  0  0  0  0  0  0  0
   -1.3270   -1.6842    0.0000 C   0  0  0  0  0  0  0  0  0  0  0  0
   -1.8357   -1.0347    0.0000 C   0  0  0  0  0  0  0  0  0  0  0  0
   -1.5276   -0.2694    0.0000 C   0  0  0  0  0  0  0  0  0  0  0  0
   -2.3209   -0.0429    0.0000 C   0  0  0  0  0  0  0  0  0  0  0  0
   -2.3506    0.7815    0.0000 C   0  0  0  0  0  0  0  0  0  0  0  0
   -3.1276    1.5077    0.0000 C   0  0  0  0  0  0  0  0  0  0  0  0
   -3.9209    1.7341    0.0000 C   0  0  0  0  0  0  0  0  0  0  0  0
   -3.9507    2.5586    0.0000 C   0  0  0  0  0  0  0  0  0  0  0  0
   -3.1758    2.8417    0.0000 C   0  0  0  0  0  0  0  0  0  0  0  0
   -2.7253    3.8050    0.0000 C   0  0  0  0  0  0  0  0  0  0  0  0
   -2.0262    4.2430    0.0000 C   0  0  0  0  0  0  0  0  0  0  0  0
   -1.3936    3.7135    0.0000 N   0  0  0  0  0  0  0  0  0  0  0  0
   -0.6944    4.1515    0.0000 C   0  0  0  0  0  0  0  0  0  0  0  0
    0.2166    3.6028    0.0000 C   0  0  0  0  0  0  0  0  0  0  0  0
    0.5791    2.8617    0.0000 C   0  0  0  0  0  0  0  0  0  0  0  0
   -0.0137    2.2879    0.0000 N   0  0  0  0  0  0  0  0  0  0  0  0
    0.3488    1.5468    0.0000 C   0  0  0  0  0  0  0  0  0  0  0  0
   -0.2921    0.6981    0.0000 C   0  0  0  0  0  0  0  0  0  0  0  0
   -1.0670    0.4151    0.0000 C   0  0  0  0  0  0  0  0  0  0  0  0
   -1.5757    1.0646    0.0000 N   0  0  0  0  0  0  0  0  0  0  0  0
    0.1987    0.0350    0.0000 C   0  0  0  0  0  0  0  0  0  0  0  0
    1.1657    1.6626    0.0000 C   0  0  0  0  0  0  0  0  0  0  0  0
    1.3080    2.4752    0.0000 C   0  0  0  0  0  0  0  0  0  0  0  0
    2.1316    2.4272    0.0000 C   0  0  0  0  0  0  0  0  0  0  0  0
    1.7756    3.1548    0.0000 C   0  0  0  0  0  0  0  0  0  0  0  0
    1.7394    1.0698    0.0000 C   0  0  0  0  0  0  0  0  0  0  0  0
    2.5397    1.2703    0.0000 C   0  0  0  0  0  0  0  0  0  0  0  0
    3.1135    0.6775    0.0000 C   0  0  0  0  0  0  0  0  0  0  0  0
    2.8870   -0.1158    0.0000 O   0  0  0  0  0  0  0  0  0  0  0  0
    3.9137    0.8780    0.0000 N   0  0  0  0  0  0  0  0  0  0  0  0
   -0.8950    4.9517    0.0000 C   0  0  0  0  0  0  0  0  0  0  0  0
   -1.7180    5.0083    0.0000 C   0  0  0  0  0  0  0  0  0  0  0  0
   -2.4428    5.4024    0.0000 C   0  0  0  0  0  0  0  0  0  0  0  0
   -1.7564    5.8324    0.0000 C   0  0  0  0  0  0  0  0  0  0  0  0
   -2.4893    6.2112    0.0000 C   0  0  0  0  0  0  0  0  0  0  0  0
   -3.1838    5.7659    0.0000 O   0  0  0  0  0  0  0  0  0  0  0  0
   -2.5277    7.0353    0.0000 N   0  0  0  0  0  0  0  0  0  0  0  0
   -0.3654    5.5843    0.0000 C   0  0  0  0  0  0  0  0  0  0  0  0
    0.4472    5.4420    0.0000 C   0  0  0  0  0  0  0  0  0  0  0  0
    0.7303    4.6671    0.0000 C   0  0  0  0  0  0  0  0  0  0  0  0
    1.5429    4.5248    0.0000 O   0  0  0  0  0  0  0  0  0  0  0  0
    0.2007    4.0345    0.0000 N   0  0  0  0  0  0  0  0  0  0  0  0
   -3.3432    4.3517    0.0000 C   0  0  0  0  0  0  0  0  0  0  0  0
   -2.6671    2.1921    0.0000 N   0  5  0  0  0  0  0  0  0  0  0  0
   -4.6352    3.0191    0.0000 C   0  0  0  0  0  0  0  0  0  0  0  0
   -5.3763    2.6566    0.0000 C   0  0  0  0  0  0  0  0  0  0  0  0
   -6.0608    3.1171    0.0000 C   0  0  0  0  0  0  0  0  0  0  0  0
   -6.0042    3.9402    0.0000 O   0  0  0  0  0  0  0  0  0  0  0  0
   -6.8019    2.7546    0.0000 N   0  0  0  0  0  0  0  0  0  0  0  0
   -4.2371    0.9721    0.0000 C   0  0  0  0  0  0  0  0  0  0  0  0
   -4.7365    1.6098    0.0000 C   0  0  0  0  0  0  0  0  0  0  0  0
   -5.0367    0.8413    0.0000 C   0  0  0  0  0  0  0  0  0  0  0  0
   -4.5212    0.1972    0.0000 O   0  0  0  0  0  0  0  0  0  0  0  0
   -5.8522    0.7170    0.0000 N   0  0  0  0  0  0  0  0  0  0  0  0
   -3.5339    0.7896    0.0000 C   0  0  0  0  0  0  0  0  0  0  0  0
   -2.9704   -0.5516    0.0000 C   0  0  0  0  0  0  0  0  0  0  0  0
   -2.8546   -1.3685    0.0000 C   0  0  0  0  0  0  0  0  0  0  0  0
   -2.0893   -1.6766    0.0000 O   0  0  0  0  0  0  0  0  0  0  0  0
   -3.5041   -1.8771    0.0000 N   0  0  0  0  0  0  0  0  0  0  0  0
   -0.7987   -0.6559    0.0000 C   0  0  0  0  0  0  0  0  0  0  0  0
    3.2815   -6.1057    0.0000 O   0  0  0  0  0  0  0  0  0  0  0  0
   10.6285    0.0000    0.0000 C   0  5  0  0  0  0  0  0  0  0  0  0
    9.8035    0.0000    0.0000 N   0  0  0  0  0  0  0  0  0  0  0  0
    0.2255   -5.1839    0.0000 Co  0  1  0  0  0  0  0  0  0  0  0  0
  1  2  1  0  0  0  0
  2  3  2  0  0  0  0
  3  4  1  0  0  0  0
  4  5  2  0  0  0  0
  5  6  1  0  0  0  0
  6  7  2  0  0  0  0
  2  7  1  0  0  0  0
  7  8  1  0  0  0  0
  5  9  1  0  0  0  0
  9 10  1  0  0  0  0
 10 11  2  0  0  0  0
  4 11  1  0  0  0  0
  9 12  1  0  0  0  0
 12 13  1  0  0  0  0
 13 14  1  0  0  0  0
 14 15  1  0  0  0  0
 15 16  1  0  0  0  0
 12 16  1  0  0  0  0
 15 17  1  0  0  0  0
 17 18  1  0  0  0  0
 14 19  1  0  0  0  0
 19 20  1  0  0  0  0
 20 21  2  0  0  0  0
 20 22  1  0  0  0  0
 20 23  1  0  0  0  0
 23 24  1  0  0  0  0
 24 25  1  0  0  0  0
 24 26  1  0  0  0  0
 26 27  1  0  0  0  0
 27 28  1  0  0  0  0
 28 29  2  0  0  0  0
 28 30  1  0  0  0  0
 30 31  1  0  0  0  0
 31 32  1  0  0  0  0
 32 33  1  0  0  0  0
 33 34  1  0  0  0  0
 34 35  1  0  0  0  0
 35 36  1  0  0  0  0
 36 37  1  0  0  0  0
 37 38  1  0  0  0  0
 38 39  2  3  0  0  0
 39 40  1  0  0  0  0
 40 41  2  0  0  0  0
 41 42  1  0  0  0  0
 42 43  2  3  0  0  0
 43 44  1  0  0  0  0
 44 45  2  0  0  0  0
 45 46  1  0  0  0  0
 46 47  2  3  0  0  0
 47 48  1  0  0  0  0
 32 48  1  0  0  0  0
 48 49  2  0  0  0  0
 34 49  1  0  0  0  0
 47 50  1  0  0  0  0
 46 51  1  0  0  0  0
 51 52  1  0  0  0  0
 44 52  1  0  0  0  0
 52 53  1  0  0  0  0
 52 54  1  0  0  0  0
 51 55  1  0  0  0  0
 55 56  1  0  0  0  0
 56 57  1  0  0  0  0
 57 58  2  0  0  0  0
 57 59  1  0  0  0  0
 42 60  1  0  0  0  0
 60 61  1  0  0  0  0
 40 61  1  0  0  0  0
 61 62  1  0  0  0  0
 61 63  1  0  0  0  0
 63 64  1  0  0  0  0
 64 65  2  0  0  0  0
 64 66  1  0  0  0  0
 60 67  1  0  0  0  0
 67 68  1  0  0  0  0
 68 69  1  0  0  0  0
 69 70  2  0  0  0  0
 69 71  1  0  0  0  0
 39 72  1  0  0  0  0
 38 73  1  0  0  0  0
 35 73  1  0  0  0  0
 37 74  1  0  0  0  0
 74 75  1  0  0  0  0
 75 76  1  0  0  0  0
 76 77  2  0  0  0  0
 76 78  1  0  0  0  0
 36 79  1  0  0  0  0
 36 80  1  0  0  0  0
 80 81  1  0  0  0  0
 81 82  2  0  0  0  0
 81 83  1  0  0  0  0
 35 84  1  0  0  0  0
 33 85  1  0  0  0  0
 85 86  1  0  0  0  0
 86 87  2  0  0  0  0
 86 88  1  0  0  0  0
 32 89  1  0  0  0  0
 13 90  1  0  0  0  0
 91 92  3  0  0  0  0
M  CHG  4  22  -1  73  -1  91  -1  93   3
M  END
>  <Name>
Cyanocobalamin

>  <CAS>
68-19-9

>  <Formula>
C63H88CoN14O14P

>  <MolWt>
1355.37 

>  <Bioactivity>
Vitamin B12 is a water soluble vitamin with a key role in the normal functioning of the brain and nervous system, and for the formation of blood.

>  <Pathways>
Vitamin

>  <Target>
VB

>  <Receptor>
VB12

>  <Reference>
1. Ghazanfari S, et al. Drug Res (Stuttg). 2014 Mar;64(3):113-7. 

$$$$
95635-56-6
  Mrv1561503291623562D          

 35 33  0  0  0  0            999 V2000
    0.4125    0.0000    0.0000 H   0  3  0  0  0  0  0  0  0  0  0  0
    3.5946    0.0000    0.0000 H   0  3  0  0  0  0  0  0  0  0  0  0
    0.5992   -7.0125    0.0000 C   0  0  0  0  0  0  0  0  0  0  0  0
   -0.1152   -6.6000    0.0000 N   0  0  0  0  0  0  0  0  0  0  0  0
   -0.8297   -7.0125    0.0000 C   0  0  0  0  0  0  0  0  0  0  0  0
   -1.5442   -6.6000    0.0000 C   0  0  0  0  0  0  0  0  0  0  0  0
   -1.5442   -5.7750    0.0000 N   0  0  0  0  0  0  0  0  0  0  0  0
   -0.8297   -5.3625    0.0000 C   0  0  0  0  0  0  0  0  0  0  0  0
   -0.1152   -5.7750    0.0000 C   0  0  0  0  0  0  0  0  0  0  0  0
   -2.2587   -5.3625    0.0000 C   0  0  0  0  0  0  0  0  0  0  0  0
   -2.2587   -4.5375    0.0000 C   0  0  0  0  0  0  0  0  0  0  0  0
   -1.5442   -4.1250    0.0000 O   0  0  0  0  0  0  0  0  0  0  0  0
   -2.9731   -4.1250    0.0000 N   0  0  0  0  0  0  0  0  0  0  0  0
   -2.9731   -3.3000    0.0000 C   0  0  0  0  0  0  0  0  0  0  0  0
   -3.6876   -2.8875    0.0000 C   0  0  0  0  0  0  0  0  0  0  0  0
   -3.6876   -2.0625    0.0000 C   0  0  0  0  0  0  0  0  0  0  0  0
   -2.9731   -1.6500    0.0000 C   0  0  0  0  0  0  0  0  0  0  0  0
   -2.2587   -2.0625    0.0000 C   0  0  0  0  0  0  0  0  0  0  0  0
   -2.2587   -2.8875    0.0000 C   0  0  0  0  0  0  0  0  0  0  0  0
   -1.5442   -3.3000    0.0000 C   0  0  0  0  0  0  0  0  0  0  0  0
   -4.4021   -3.3000    0.0000 C   0  0  0  0  0  0  0  0  0  0  0  0
    1.3137   -6.6000    0.0000 C   0  0  0  0  0  0  0  0  0  0  0  0
    1.3137   -5.7750    0.0000 O   0  0  0  0  0  0  0  0  0  0  0  0
    2.0282   -7.0125    0.0000 C   0  0  0  0  0  0  0  0  0  0  0  0
    2.7426   -6.6000    0.0000 O   0  0  0  0  0  0  0  0  0  0  0  0
    3.4571   -7.0125    0.0000 C   0  0  0  0  0  0  0  0  0  0  0  0
    4.1716   -6.6000    0.0000 C   0  0  0  0  0  0  0  0  0  0  0  0
    4.8861   -7.0125    0.0000 C   0  0  0  0  0  0  0  0  0  0  0  0
    4.8861   -7.8375    0.0000 C   0  0  0  0  0  0  0  0  0  0  0  0
    4.1716   -8.2500    0.0000 C   0  0  0  0  0  0  0  0  0  0  0  0
    3.4571   -7.8375    0.0000 C   0  0  0  0  0  0  0  0  0  0  0  0
    2.7426   -8.2500    0.0000 O   0  0  0  0  0  0  0  0  0  0  0  0
    2.0282   -7.8375    0.0000 C   0  0  0  0  0  0  0  0  0  0  0  0
   -0.4125    0.0000    0.0000 Cl  0  5  0  0  0  0  0  0  0  0  0  0
    2.7696    0.0000    0.0000 Cl  0  5  0  0  0  0  0  0  0  0  0  0
  3  4  1  0  0  0  0
  4  5  1  0  0  0  0
  5  6  1  0  0  0  0
  6  7  1  0  0  0  0
  7  8  1  0  0  0  0
  8  9  1  0  0  0  0
  4  9  1  0  0  0  0
  7 10  1  0  0  0  0
 10 11  1  0  0  0  0
 11 12  2  0  0  0  0
 11 13  1  0  0  0  0
 13 14  1  0  0  0  0
 14 15  2  0  0  0  0
 15 16  1  0  0  0  0
 16 17  2  0  0  0  0
 17 18  1  0  0  0  0
 18 19  2  0  0  0  0
 14 19  1  0  0  0  0
 19 20  1  0  0  0  0
 15 21  1  0  0  0  0
  3 22  1  0  0  0  0
 22 23  1  0  0  0  0
 22 24  1  0  0  0  0
 24 25  1  0  0  0  0
 25 26  1  0  0  0  0
 26 27  2  0  0  0  0
 27 28  1  0  0  0  0
 28 29  2  0  0  0  0
 29 30  1  0  0  0  0
 30 31  2  0  0  0  0
 26 31  1  0  0  0  0
 31 32  1  0  0  0  0
 32 33  1  0  0  0  0
M  CHG  4   1   1   2   1  34  -1  35  -1
M  END
>  <Name>
Ranolazine 2HCl

>  <CAS>
95635-56-6

>  <Formula>
C24H35Cl2N3O4

>  <MolWt>
500.46 

>  <Bioactivity>
Antianginal agent with antiarrhythmic properties that acts as a partial fatty acid oxidation inhibitor. Activates pyruvate dehydrogenase in ischemic myocytes to promote glucose oxidation, switching substrate utilization from fatty acids to glucose.

>  <Pathways>
Membrane Transporter/Ion Channel

>  <Target>
Sodium Channel;Calcium Channel

>  <Receptor>
Sodium channel;Calcium Channel

>  <Reference>
1. Undrovinas AI, et al. J Cardiovasc Electrophysiol, 2006, 17 Suppl 1, S169-S177.

$$$$

  Mrv1561503291623562D          

  0  0  0  0  0  0            999 V2000
M  END
>  <Name>
Tylosin tartrate

>  <CAS>
74610-55-2

>  <Formula>
C49H81NO23

>  <MolWt>
1052.16 

>  <Bioactivity>
Tylosin tartrate is a macrolide antibiotic approved for the control of mycoplasmosis in poultry.

>  <Pathways>
Microbiology & Virology

>  <Target>
Antibiotic

>  <Receptor>
Others

>  <Reference>
1. Loftin KA, et al. Environ Toxicol Chem, 2005, 24(4), 782-788.

$$$$
T0374
  Mrv1561503291623562D          

 38 39  0  0  1  0            999 V2000
   -0.3175   -0.0917    0.0000 C   0  0  2  0  0  0  0  0  0  0  0  0
   -0.3175   -0.9167    0.0000 O   0  0  0  0  0  0  0  0  0  0  0  0
   -1.0320    0.3208    0.0000 C   0  0  0  0  0  0  0  0  0  0  0  0
   -1.7465   -0.0917    0.0000 O   0  0  0  0  0  0  0  0  0  0  0  0
   -1.0320    1.1458    0.0000 O   0  0  0  0  0  0  0  0  0  0  0  0
    0.3969    0.3208    0.0000 C   0  0  0  0  0  0  0  0  0  0  0  0
    1.1114   -0.0917    0.0000 C   0  0  0  0  0  0  0  0  0  0  0  0
    1.8259    0.3208    0.0000 O   0  0  0  0  0  0  0  0  0  0  0  0
    1.1114   -0.9167    0.0000 O   0  0  0  0  0  0  0  0  0  0  0  0
    5.1093   -1.7484    0.0000 C   0  0  0  0  0  0  0  0  0  0  0  0
    4.3247   -2.0033    0.0000 C   0  0  0  0  0  0  0  0  0  0  0  0
    4.1532   -2.8103    0.0000 F   0  0  0  0  0  0  0  0  0  0  0  0
    3.7116   -1.4513    0.0000 C   0  0  0  0  0  0  0  0  0  0  0  0
    3.8831   -0.6443    0.0000 C   0  0  0  0  0  0  0  0  0  0  0  0
    4.6677   -0.3894    0.0000 C   0  0  0  0  0  0  0  0  0  0  0  0
    5.2808   -0.9414    0.0000 C   0  0  0  0  0  0  0  0  0  0  0  0
    5.9953   -0.5289    0.0000 C   0  0  0  0  0  0  0  0  0  0  0  0
    5.8238    0.2781    0.0000 C   0  0  0  0  0  0  0  0  0  0  0  0
    6.3758    0.8912    0.0000 O   0  0  0  0  0  0  0  0  0  0  0  0
    5.0033    0.3643    0.0000 N   0  0  0  0  0  0  0  0  0  0  0  0
    6.7490   -0.8645    0.0000 C   0  0  0  0  0  0  0  0  0  0  0  0
    7.4164   -0.3795    0.0000 C   0  0  0  0  0  0  0  0  0  0  0  0
    8.2010   -0.6345    0.0000 C   0  0  0  0  0  0  0  0  0  0  0  0
    8.6860    0.0330    0.0000 C   0  0  0  0  0  0  0  0  0  0  0  0
    8.2010    0.7004    0.0000 C   0  0  0  0  0  0  0  0  0  0  0  0
    7.4164    0.4455    0.0000 N   0  0  0  0  0  0  0  0  0  0  0  0
    8.4560    1.4850    0.0000 C   0  0  0  0  0  0  0  0  0  0  0  0
    9.5110    0.0330    0.0000 C   0  0  0  0  0  0  0  0  0  0  0  0
    9.9235   -0.6815    0.0000 O   0  0  0  0  0  0  0  0  0  0  0  0
    9.9235    0.7474    0.0000 N   0  0  0  0  0  0  0  0  0  0  0  0
   10.7485    0.7474    0.0000 C   0  0  0  0  0  0  0  0  0  0  0  0
   11.1610    1.4619    0.0000 C   0  0  0  0  0  0  0  0  0  0  0  0
   11.9860    1.4619    0.0000 N   0  0  0  0  0  0  0  0  0  0  0  0
   12.3985    2.1764    0.0000 C   0  0  0  0  0  0  0  0  0  0  0  0
   13.2235    2.1764    0.0000 C   0  0  0  0  0  0  0  0  0  0  0  0
   12.3985    0.7474    0.0000 C   0  0  0  0  0  0  0  0  0  0  0  0
   13.2235    0.7474    0.0000 C   0  0  0  0  0  0  0  0  0  0  0  0
    8.4560   -1.4191    0.0000 C   0  0  0  0  0  0  0  0  0  0  0  0
  1  2  1  6  0  0  0
  1  3  1  0  0  0  0
  3  4  2  0  0  0  0
  3  5  1  0  0  0  0
  1  6  1  0  0  0  0
  6  7  1  0  0  0  0
  7  8  2  0  0  0  0
  7  9  1  0  0  0  0
 10 11  2  0  0  0  0
 11 12  1  0  0  0  0
 11 13  1  0  0  0  0
 13 14  2  0  0  0  0
 14 15  1  0  0  0  0
 15 16  2  0  0  0  0
 10 16  1  0  0  0  0
 16 17  1  0  0  0  0
 17 18  1  0  0  0  0
 18 19  2  0  0  0  0
 18 20  1  0  0  0  0
 15 20  1  0  0  0  0
 17 21  2  0  0  0  0
 21 22  1  0  0  0  0
 22 23  2  0  0  0  0
 23 24  1  0  0  0  0
 24 25  2  0  0  0  0
 25 26  1  0  0  0  0
 22 26  1  0  0  0  0
 25 27  1  0  0  0  0
 24 28  1  0  0  0  0
 28 29  2  0  0  0  0
 28 30  1  0  0  0  0
 30 31  1  0  0  0  0
 31 32  1  0  0  0  0
 32 33  1  0  0  0  0
 33 34  1  0  0  0  0
 34 35  1  0  0  0  0
 33 36  1  0  0  0  0
 36 37  1  0  0  0  0
 23 38  1  0  0  0  0
M  END
>  <Name>
Sunitinib Malate

>  <CAS>
341031-54-7

>  <Formula>
C22H27FN4O2

>  <MolWt>
532.56 

>  <Bioactivity>
Potent, ATP-competitive VEGFR, PDGFR? and KIT inhibitor. Also inhibits cellular receptor phosphorylation of FLT3, RET and CSF-1R. Exhibits antiangiogenic and antitumor activity in multiple xenograft models.

>  <Pathways>
Tyrosine Kinase/Adaptors

>  <Target>
c-Kit inhibitor; PDGFR inhibitor; VEGFR inhibitor

>  <Receptor>
c-Kit;PDGFR?;VEGFR2

>  <Reference>
1. Sun L, et al. J Med Chem, 2003, 46(7), 1116-1119.

$$$$
T0373
  Mrv1561503291623562D          

 29 31  0  0  0  0            999 V2000
   -2.8579   -4.1250    0.0000 C   0  0  0  0  0  0  0  0  0  0  0  0
   -2.1434   -3.7125    0.0000 C   0  0  0  0  0  0  0  0  0  0  0  0
   -1.4289   -4.1250    0.0000 O   0  0  0  0  0  0  0  0  0  0  0  0
   -0.7145   -3.7125    0.0000 C   0  0  0  0  0  0  0  0  0  0  0  0
   -0.0000   -4.1250    0.0000 C   0  0  0  0  0  0  0  0  0  0  0  0
    0.7145   -3.7125    0.0000 O   0  0  0  0  0  0  0  0  0  0  0  0
    1.4289   -4.1250    0.0000 C   0  0  0  0  0  0  0  0  0  0  0  0
   -2.1434   -2.8875    0.0000 C   0  0  0  0  0  0  0  0  0  0  0  0
   -2.8579   -2.4750    0.0000 C   0  0  0  0  0  0  0  0  0  0  0  0
   -3.5724   -2.8875    0.0000 C   0  0  0  0  0  0  0  0  0  0  0  0
   -3.5724   -3.7125    0.0000 C   0  0  0  0  0  0  0  0  0  0  0  0
   -4.2868   -4.1250    0.0000 C   0  0  0  0  0  0  0  0  0  0  0  0
   -5.0013   -3.7125    0.0000 N   0  0  0  0  0  0  0  0  0  0  0  0
   -5.0013   -2.8875    0.0000 C   0  0  0  0  0  0  0  0  0  0  0  0
   -4.2868   -2.4750    0.0000 N   0  0  0  0  0  0  0  0  0  0  0  0
   -4.2868   -4.9500    0.0000 N   0  0  0  0  0  0  0  0  0  0  0  0
   -5.0013   -5.3625    0.0000 C   0  0  0  0  0  0  0  0  0  0  0  0
   -5.0013   -6.1875    0.0000 C   0  0  0  0  0  0  0  0  0  0  0  0
   -5.7158   -6.6000    0.0000 C   0  0  0  0  0  0  0  0  0  0  0  0
   -6.4302   -6.1875    0.0000 C   0  0  0  0  0  0  0  0  0  0  0  0
   -6.4302   -5.3625    0.0000 C   0  0  0  0  0  0  0  0  0  0  0  0
   -5.7158   -4.9500    0.0000 C   0  0  0  0  0  0  0  0  0  0  0  0
   -5.7158   -7.4250    0.0000 C   0  0  0  0  0  0  0  0  0  0  0  0
   -5.7158   -8.2500    0.0000 C   0  0  0  0  0  0  0  0  0  0  0  0
   -1.4289   -2.4750    0.0000 O   0  0  0  0  0  0  0  0  0  0  0  0
   -0.7145   -2.8875    0.0000 C   0  0  0  0  0  0  0  0  0  0  0  0
   -0.0000   -2.4750    0.0000 C   0  0  0  0  0  0  0  0  0  0  0  0
    0.7145   -2.8875    0.0000 O   0  0  0  0  0  0  0  0  0  0  0  0
    1.4289   -2.4750    0.0000 C   0  0  0  0  0  0  0  0  0  0  0  0
  1  2  2  0  0  0  0
  2  3  1  0  0  0  0
  3  4  1  0  0  0  0
  4  5  1  0  0  0  0
  5  6  1  0  0  0  0
  6  7  1  0  0  0  0
  2  8  1  0  0  0  0
  8  9  2  0  0  0  0
  9 10  1  0  0  0  0
 10 11  2  0  0  0  0
  1 11  1  0  0  0  0
 11 12  1  0  0  0  0
 12 13  2  0  0  0  0
 13 14  1  0  0  0  0
 14 15  2  0  0  0  0
 10 15  1  0  0  0  0
 12 16  1  0  0  0  0
 16 17  1  0  0  0  0
 17 18  2  0  0  0  0
 18 19  1  0  0  0  0
 19 20  2  0  0  0  0
 20 21  1  0  0  0  0
 21 22  2  0  0  0  0
 17 22  1  0  0  0  0
 19 23  1  0  0  0  0
 23 24  3  0  0  0  0
  8 25  1  0  0  0  0
 25 26  1  0  0  0  0
 26 27  1  0  0  0  0
 27 28  1  0  0  0  0
 28 29  1  0  0  0  0
M  END
>  <Name>
Erlotinib

>  <CAS>
183321-74-6

>  <Formula>
C22H23N3O4

>  <MolWt>
393.44 

>  <Bioactivity>
Erlotinib hydrochloride (trade name Tarceva, Genentech/OSIP, originally coded as OSI-774) is a drug used to treat non-small cell lung cancer, pancreatic cancer and several other types of cancer. Similar to gefitinib, erlotinib specifically targets the epidermal growth factor receptor (EGFR) tyrosine kinase. It binds in a reversible fashion to the adenosine triphosphate (ATP) binding site of the receptor. Erlotinib has recently been shown to be a potent inhibitor of JAK2V617F activity. JAK2V617F is a mutant of tyrosine kinase JAK2, is found in most patients with polycythemia vera (PV) and a substantial proportion of patients with idiopathic myelofibrosis or essential thrombocythemia. The study suggests that erlotinib may be used for treatment of JAK2V617F-positive PV and other myeloproliferative disorders. 

>  <Pathways>
Tyrosine Kinase/Adaptors; JAK/STAT Signaling 

>  <Target>
EGFR antagonist

>  <Receptor>
EGFR

>  <Reference>
1. Moyer JD, et al. Cancer Res. 1997, 57(21), 4838-4848.

$$$$
T0372
  Mrv1561503291623562D          

 28 27  0  0  0  0            999 V2000
    0.0000   -0.8250    0.0000 C   0  0  0  0  0  0  0  0  0  0  0  0
    0.0000    0.0000    0.0000 S   0  0  0  0  0  0  0  0  0  0  0  0
    0.0000    0.8250    0.0000 O   0  0  0  0  0  0  0  0  0  0  0  0
    0.8250   -0.0000    0.0000 O   0  0  0  0  0  0  0  0  0  0  0  0
   -0.8250    0.0000    0.0000 O   0  5  0  0  0  0  0  0  0  0  0  0
    6.7545   -0.6815    0.0000 C   0  0  0  0  0  0  0  0  0  0  0  0
    6.0400   -0.2690    0.0000 C   0  0  0  0  0  0  0  0  0  0  0  0
    6.0400    0.5560    0.0000 C   0  0  0  0  0  0  0  0  0  0  0  0
    6.7545    0.9685    0.0000 C   0  0  0  0  0  0  0  0  0  0  0  0
    7.4690    0.5560    0.0000 C   0  0  0  0  0  0  0  0  0  0  0  0
    7.4690   -0.2690    0.0000 C   0  0  0  0  0  0  0  0  0  0  0  0
    8.1834   -0.6815    0.0000 O   0  0  0  0  0  0  0  0  0  0  0  0
    8.8979   -0.2690    0.0000 C   0  0  0  0  0  0  0  0  0  0  0  0
    9.6124   -0.6815    0.0000 C   0  0  0  0  0  0  0  0  0  0  0  0
   10.3269   -0.2690    0.0000 C   0  0  0  0  0  0  0  0  0  0  0  0
   11.0413   -0.6815    0.0000 C   0  0  0  0  0  0  0  0  0  0  0  0
   11.7558   -0.2690    0.0000 C   0  0  0  0  0  0  0  0  0  0  0  0
   12.4703   -0.6815    0.0000 C   0  0  0  0  0  0  0  0  0  0  0  0
   13.1847   -0.2690    0.0000 N   0  0  0  0  0  0  0  0  0  0  0  0
   13.8992   -0.6815    0.0000 C   0  0  0  0  0  0  0  0  0  0  0  0
   14.6137   -0.2690    0.0000 N   0  3  0  0  0  0  0  0  0  0  0  0
   13.8992   -1.5065    0.0000 N   0  0  0  0  0  0  0  0  0  0  0  0
    8.8979    0.5560    0.0000 O   0  0  0  0  0  0  0  0  0  0  0  0
    5.3256    0.9685    0.0000 C   0  0  0  0  0  0  0  0  0  0  0  0
    5.3256    1.7935    0.0000 O   0  0  0  0  0  0  0  0  0  0  0  0
    4.6111    0.5560    0.0000 O   0  0  0  0  0  0  0  0  0  0  0  0
    3.8966    0.9685    0.0000 C   0  0  0  0  0  0  0  0  0  0  0  0
    3.1821    0.5560    0.0000 C   0  0  0  0  0  0  0  0  0  0  0  0
  1  2  1  0  0  0  0
  2  3  2  0  0  0  0
  2  4  2  0  0  0  0
  2  5  1  0  0  0  0
  6  7  2  0  0  0  0
  7  8  1  0  0  0  0
  8  9  2  0  0  0  0
  9 10  1  0  0  0  0
 10 11  2  0  0  0  0
  6 11  1  0  0  0  0
 11 12  1  0  0  0  0
 12 13  1  0  0  0  0
 13 14  1  0  0  0  0
 14 15  1  0  0  0  0
 15 16  1  0  0  0  0
 16 17  1  0  0  0  0
 17 18  1  0  0  0  0
 19 18  1  4  0  0  0
 19 20  2  0  0  0  0
 20 21  1  0  0  0  0
 20 22  1  0  0  0  0
 13 23  2  0  0  0  0
  8 24  1  0  0  0  0
 24 25  2  0  0  0  0
 24 26  1  0  0  0  0
 26 27  1  0  0  0  0
 27 28  1  0  0  0  0
M  CHG  2   5  -1  21   1
M  END
>  <Name>
Gabexate mesylate

>  <CAS>
56974-61-9

>  <Formula>
C17H27N3O7

>  <MolWt>
417.48 

>  <Bioactivity>
A serine proteinase inhibitor used therapeutically in the treatment of pancreatitis, disseminated intravascular coagulation (DIC), and as a regional anticoagulant for hemodialysis. The drug inhibits the hydrolytic effects of thrombin, plasmin, and kallikrein, but not of chymotrypsin and aprotinin. 

>  <Pathways>
Proteases/Proteasome

>  <Target>
Serine Protease inhibitor

>  <Receptor>
Trypsin-like serine proteinases

>  <Reference>
1. Erba F, et al. Biochem Pharmacol. 2001 Feb 1;61(3):271-6.

$$$$
T1622
  Mrv1561503291623562D          

 33 34  0  0  0  0            999 V2000
   -1.5928   -0.0872    0.0000 C   0  0  0  0  0  0  0  0  0  0  0  0
   -1.5928    0.7378    0.0000 C   0  0  0  0  0  0  0  0  0  0  0  0
   -2.3072    1.1503    0.0000 C   0  0  0  0  0  0  0  0  0  0  0  0
   -3.0217    0.7378    0.0000 C   0  0  0  0  0  0  0  0  0  0  0  0
   -3.1079   -0.0827    0.0000 S   0  0  0  0  0  0  0  0  0  0  0  0
   -3.9149   -0.2542    0.0000 C   0  0  0  0  0  0  0  0  0  0  0  0
   -4.2505   -1.0079    0.0000 O   0  0  0  0  0  0  0  0  0  0  0  0
   -4.3274    0.4603    0.0000 N   0  0  0  0  0  0  0  0  0  0  0  0
   -3.7754    1.0734    0.0000 C   0  0  0  0  0  0  0  0  0  0  0  0
   -3.9469    1.8803    0.0000 O   0  0  0  0  0  0  0  0  0  0  0  0
   -0.8783    1.1503    0.0000 C   0  0  0  0  0  0  0  0  0  0  0  0
   -0.1638    0.7378    0.0000 C   0  0  0  0  0  0  0  0  0  0  0  0
   -0.1638   -0.0872    0.0000 C   0  0  0  0  0  0  0  0  0  0  0  0
   -0.8783   -0.4997    0.0000 C   0  0  0  0  0  0  0  0  0  0  0  0
    0.5507   -0.4997    0.0000 O   0  0  0  0  0  0  0  0  0  0  0  0
    1.2651   -0.0872    0.0000 C   0  0  0  0  0  0  0  0  0  0  0  0
    1.9796   -0.4997    0.0000 C   0  0  0  0  0  0  0  0  0  0  0  0
    2.6941   -0.0872    0.0000 N   0  0  0  0  0  0  0  0  0  0  0  0
    3.4085   -0.4997    0.0000 C   0  0  0  0  0  0  0  0  0  0  0  0
    4.1230   -0.0872    0.0000 C   0  0  0  0  0  0  0  0  0  0  0  0
    4.8375   -0.4997    0.0000 C   0  0  0  0  0  0  0  0  0  0  0  0
    4.8375   -1.3247    0.0000 C   0  0  0  0  0  0  0  0  0  0  0  0
    4.1230   -1.7372    0.0000 C   0  0  0  0  0  0  0  0  0  0  0  0
    3.4085   -1.3247    0.0000 N   0  0  0  0  0  0  0  0  0  0  0  0
    2.6941    0.7378    0.0000 C   0  0  0  0  0  0  0  0  0  0  0  0
   10.0232   -0.0000    0.0000 O   0  0  0  0  0  0  0  0  0  0  0  0
    9.1982    0.0000    0.0000 C   0  0  0  0  0  0  0  0  0  0  0  0
    8.7857   -0.7145    0.0000 O   0  0  0  0  0  0  0  0  0  0  0  0
    8.7857    0.7145    0.0000 C   0  0  0  0  0  0  0  0  0  0  0  0
    7.9607    0.7145    0.0000 C   0  0  0  0  0  0  0  0  0  0  0  0
    7.5482    0.0000    0.0000 C   0  0  0  0  0  0  0  0  0  0  0  0
    7.9607   -0.7145    0.0000 O   0  0  0  0  0  0  0  0  0  0  0  0
    6.7232    0.0000    0.0000 O   0  0  0  0  0  0  0  0  0  0  0  0
  1  2  2  0  0  0  0
  2  3  1  0  0  0  0
  3  4  1  0  0  0  0
  4  5  1  0  0  0  0
  5  6  1  0  0  0  0
  6  7  2  0  0  0  0
  6  8  1  0  0  0  0
  8  9  1  0  0  0  0
  4  9  1  0  0  0  0
  9 10  2  0  0  0  0
  2 11  1  0  0  0  0
 11 12  2  0  0  0  0
 12 13  1  0  0  0  0
 13 14  2  0  0  0  0
  1 14  1  0  0  0  0
 13 15  1  0  0  0  0
 15 16  1  0  0  0  0
 16 17  1  0  0  0  0
 17 18  1  0  0  0  0
 18 19  1  0  0  0  0
 19 20  2  0  0  0  0
 20 21  1  0  0  0  0
 21 22  2  0  0  0  0
 22 23  1  0  0  0  0
 23 24  2  0  0  0  0
 19 24  1  0  0  0  0
 18 25  1  0  0  0  0
 26 27  2  0  0  0  0
 27 28  1  0  0  0  0
 27 29  1  0  0  0  0
 29 30  2  0  0  0  0
 30 31  1  0  0  0  0
 31 32  2  0  0  0  0
 31 33  1  0  0  0  0
M  END
>  <Name>
Rosiglitazone maleate

>  <CAS>
155141-29-0

>  <Formula>
C18H19N3O3S.C4H4O4

>  <MolWt>
473.12 

>  <Bioactivity>
Rosiglitazone maleate is the maleic acid salt form of rosiglitazone, a potent insulin sensitizer, which is used for the treatment of diabetes. Rosiglitazone belongs to a group of compounds, thiazolidinediones (TZDs), which selectively ligate the nuclear transcription factor peroxisome-proliferator-activated receptor-? (PPAR?). As a TZD, rosiglitazone improves the sensitivity of end organs to insulin through PPAR? activation which poteniates them to lower concentrations of blood glucose. Despite of its beneficial effects of targeting insulin resistance, recent studies has shown that rosiglitazone is associated with several moderate to severe adverse effects, including hemodilution, anemia, weight gain, and edema as well as increased risk for heart failure and myocardial ischemic events.

>  <Pathways>
Metabolism

>  <Target>
PPAR agonist

>  <Receptor>
PPAR

>  <Reference>
1. Pfützner A, et al. Vasc Health Risk Manag. 2007; 3(2):211-20.

$$$$
53746-45-5
  Mrv1561503291623562D          

 39 38  0  0  0  0            999 V2000
    0.6017    0.0434    0.0000 C   0  0  0  0  0  0  0  0  0  0  0  0
    0.6017   -0.7816    0.0000 C   0  0  0  0  0  0  0  0  0  0  0  0
    1.3161   -1.1941    0.0000 C   0  0  0  0  0  0  0  0  0  0  0  0
    2.0306   -0.7816    0.0000 C   0  0  0  0  0  0  0  0  0  0  0  0
    1.3161   -2.0191    0.0000 C   0  0  0  0  0  0  0  0  0  0  0  0
    2.0306   -2.4316    0.0000 O   0  5  0  0  0  0  0  0  0  0  0  0
    0.6017   -2.4316    0.0000 O   0  0  0  0  0  0  0  0  0  0  0  0
   -0.1128   -1.1941    0.0000 C   0  0  0  0  0  0  0  0  0  0  0  0
   -0.8273   -0.7816    0.0000 C   0  0  0  0  0  0  0  0  0  0  0  0
   -0.8273    0.0434    0.0000 C   0  0  0  0  0  0  0  0  0  0  0  0
   -0.1128    0.4559    0.0000 C   0  0  0  0  0  0  0  0  0  0  0  0
   -0.1128    1.2809    0.0000 O   0  0  0  0  0  0  0  0  0  0  0  0
   -0.8273    1.6934    0.0000 C   0  0  0  0  0  0  0  0  0  0  0  0
   -1.5418    1.2809    0.0000 C   0  0  0  0  0  0  0  0  0  0  0  0
   -2.2562    1.6934    0.0000 C   0  0  0  0  0  0  0  0  0  0  0  0
   -2.2562    2.5184    0.0000 C   0  0  0  0  0  0  0  0  0  0  0  0
   -1.5418    2.9309    0.0000 C   0  0  0  0  0  0  0  0  0  0  0  0
   -0.8273    2.5184    0.0000 C   0  0  0  0  0  0  0  0  0  0  0  0
    6.0597   -0.1146    0.0000 C   0  0  0  0  0  0  0  0  0  0  0  0
    6.0597   -0.9396    0.0000 C   0  0  0  0  0  0  0  0  0  0  0  0
    6.7742   -1.3521    0.0000 C   0  0  0  0  0  0  0  0  0  0  0  0
    7.4887   -0.9396    0.0000 C   0  0  0  0  0  0  0  0  0  0  0  0
    6.7742   -2.1771    0.0000 C   0  0  0  0  0  0  0  0  0  0  0  0
    7.4887   -2.5896    0.0000 O   0  5  0  0  0  0  0  0  0  0  0  0
    6.0597   -2.5896    0.0000 O   0  0  0  0  0  0  0  0  0  0  0  0
    5.3453   -1.3521    0.0000 C   0  0  0  0  0  0  0  0  0  0  0  0
    4.6308   -0.9396    0.0000 C   0  0  0  0  0  0  0  0  0  0  0  0
    4.6308   -0.1146    0.0000 C   0  0  0  0  0  0  0  0  0  0  0  0
    5.3453    0.2979    0.0000 C   0  0  0  0  0  0  0  0  0  0  0  0
    5.3453    1.1229    0.0000 O   0  0  0  0  0  0  0  0  0  0  0  0
    6.0597    1.5354    0.0000 C   0  0  0  0  0  0  0  0  0  0  0  0
    6.0597    2.3604    0.0000 C   0  0  0  0  0  0  0  0  0  0  0  0
    6.7742    2.7729    0.0000 C   0  0  0  0  0  0  0  0  0  0  0  0
    7.4887    2.3604    0.0000 C   0  0  0  0  0  0  0  0  0  0  0  0
    7.4887    1.5354    0.0000 C   0  0  0  0  0  0  0  0  0  0  0  0
    6.7742    1.1229    0.0000 C   0  0  0  0  0  0  0  0  0  0  0  0
    2.7451   -2.8441    0.0000 Ca  0  2  0  0  0  0  0  0  0  0  0  0
    0.0000   -4.4941    0.0000 O   0  0  0  0  0  0  0  0  0  0  0  0
    2.3571   -4.4941    0.0000 O   0  0  0  0  0  0  0  0  0  0  0  0
  1  2  2  0  0  0  0
  2  3  1  0  0  0  0
  3  4  1  0  0  0  0
  3  5  1  0  0  0  0
  5  6  1  0  0  0  0
  5  7  2  0  0  0  0
  2  8  1  0  0  0  0
  8  9  2  0  0  0  0
  9 10  1  0  0  0  0
 10 11  2  0  0  0  0
  1 11  1  0  0  0  0
 11 12  1  0  0  0  0
 12 13  1  0  0  0  0
 13 14  2  0  0  0  0
 14 15  1  0  0  0  0
 15 16  2  0  0  0  0
 16 17  1  0  0  0  0
 17 18  2  0  0  0  0
 13 18  1  0  0  0  0
 19 20  2  0  0  0  0
 20 21  1  0  0  0  0
 21 22  1  0  0  0  0
 21 23  1  0  0  0  0
 23 24  1  0  0  0  0
 23 25  2  0  0  0  0
 20 26  1  0  0  0  0
 26 27  2  0  0  0  0
 27 28  1  0  0  0  0
 28 29  2  0  0  0  0
 19 29  1  0  0  0  0
 29 30  1  0  0  0  0
 30 31  1  0  0  0  0
 31 32  2  0  0  0  0
 32 33  1  0  0  0  0
 33 34  2  0  0  0  0
 34 35  1  0  0  0  0
 35 36  2  0  0  0  0
 31 36  1  0  0  0  0
M  CHG  3   6  -1  24  -1  37   2
M  END
>  <Name>
Fenoprofen calcium

>  <CAS>
53746-45-5

>  <Formula>
C30H30CaO8

>  <MolWt>
558.63 

>  <Bioactivity>
An anti-inflammatory analgesic and antipyretic highly bound to plasma proteins. It is pharmacologically similar to ASPIRIN, but causes less gastrointestinal bleeding. 

>  <Pathways>
Neuroscience

>  <Target>
COX

>  <Receptor>
Prostaglandin G/H synthase1/2

>  <Reference>
1. Poggi JC, et al. J Clin Pharmacol. 2006 Nov;46(11):1328-36.

$$$$
26328-04-1
  Mrv1561503291623562D          

 38 39  0  0  0  0            999 V2000
   -0.1429    3.0045    0.0000 C   0  0  0  0  0  0  0  0  0  0  0  0
   -0.1429    2.1795    0.0000 C   0  0  0  0  0  0  0  0  0  0  0  0
    0.5716    1.7670    0.0000 C   0  0  0  0  0  0  0  0  0  0  0  0
    0.5716    0.9420    0.0000 C   0  0  0  0  0  0  0  0  0  0  0  0
    1.2860    0.5295    0.0000 C   0  0  0  0  0  0  0  0  0  0  0  0
    1.2860   -0.2955    0.0000 N   0  0  0  0  0  0  0  0  0  0  0  0
    2.0005   -0.7080    0.0000 C   0  0  0  0  0  0  0  0  0  0  0  0
    2.0005   -1.5330    0.0000 C   0  0  0  0  0  0  0  0  0  0  0  0
    1.2860   -1.9455    0.0000 N   0  0  0  0  0  0  0  0  0  0  0  0
    1.2860   -2.7705    0.0000 C   0  0  0  0  0  0  0  0  0  0  0  0
    0.5716   -3.1830    0.0000 C   0  0  0  0  0  0  0  0  0  0  0  0
    0.5716   -4.0080    0.0000 N   0  0  0  0  0  0  0  0  0  0  0  0
    1.2390   -4.4930    0.0000 C   0  0  0  0  0  0  0  0  0  0  0  0
    0.9841   -5.2776    0.0000 C   0  0  0  0  0  0  0  0  0  0  0  0
    0.1591   -5.2776    0.0000 C   0  0  0  0  0  0  0  0  0  0  0  0
   -0.0959   -4.4930    0.0000 C   0  0  0  0  0  0  0  0  0  0  0  0
   -0.1429   -2.7705    0.0000 O   0  0  0  0  0  0  0  0  0  0  0  0
    0.5716   -1.5330    0.0000 C   0  0  0  0  0  0  0  0  0  0  0  0
    0.5716   -0.7080    0.0000 C   0  0  0  0  0  0  0  0  0  0  0  0
    2.0005    0.9420    0.0000 O   0  0  0  0  0  0  0  0  0  0  0  0
   -0.8574    1.7670    0.0000 C   0  0  0  0  0  0  0  0  0  0  0  0
   -1.5718    2.1795    0.0000 C   0  0  0  0  0  0  0  0  0  0  0  0
   -1.5718    3.0045    0.0000 C   0  0  0  0  0  0  0  0  0  0  0  0
   -0.8574    3.4170    0.0000 C   0  0  0  0  0  0  0  0  0  0  0  0
   -0.8574    4.2420    0.0000 O   0  0  0  0  0  0  0  0  0  0  0  0
   -0.1429    4.6545    0.0000 C   0  0  0  0  0  0  0  0  0  0  0  0
   -2.2863    3.4170    0.0000 O   0  0  0  0  0  0  0  0  0  0  0  0
   -3.0008    3.0045    0.0000 C   0  0  0  0  0  0  0  0  0  0  0  0
   -2.2863    1.7670    0.0000 O   0  0  0  0  0  0  0  0  0  0  0  0
   -3.0008    2.1795    0.0000 C   0  0  0  0  0  0  0  0  0  0  0  0
    7.0684   -0.0000    0.0000 O   0  0  0  0  0  0  0  0  0  0  0  0
    6.2434    0.0000    0.0000 C   0  0  0  0  0  0  0  0  0  0  0  0
    5.8309    0.7145    0.0000 C   0  0  0  0  0  0  0  0  0  0  0  0
    5.0059    0.7145    0.0000 C   0  0  0  0  0  0  0  0  0  0  0  0
    4.5934    0.0000    0.0000 C   0  0  0  0  0  0  0  0  0  0  0  0
    5.0059   -0.7145    0.0000 O   0  0  0  0  0  0  0  0  0  0  0  0
    3.7684    0.0000    0.0000 O   0  0  0  0  0  0  0  0  0  0  0  0
    5.8309   -0.7145    0.0000 O   0  0  0  0  0  0  0  0  0  0  0  0
  1  2  2  0  0  0  0
  2  3  1  0  0  0  0
  3  4  2  0  0  0  0
  4  5  1  0  0  0  0
  5  6  1  0  0  0  0
  6  7  1  0  0  0  0
  7  8  1  0  0  0  0
  8  9  1  0  0  0  0
  9 10  1  0  0  0  0
 10 11  1  0  0  0  0
 11 12  1  0  0  0  0
 12 13  1  0  0  0  0
 13 14  1  0  0  0  0
 14 15  1  0  0  0  0
 15 16  1  0  0  0  0
 12 16  1  0  0  0  0
 11 17  2  0  0  0  0
  9 18  1  0  0  0  0
 18 19  1  0  0  0  0
  6 19  1  0  0  0  0
  5 20  2  0  0  0  0
  2 21  1  0  0  0  0
 21 22  2  0  0  0  0
 22 23  1  0  0  0  0
 23 24  2  0  0  0  0
  1 24  1  0  0  0  0
 24 25  1  0  0  0  0
 25 26  1  0  0  0  0
 23 27  1  0  0  0  0
 27 28  1  0  0  0  0
 22 29  1  0  0  0  0
 29 30  1  0  0  0  0
 31 32  2  0  0  0  0
 32 33  1  0  0  0  0
 33 34  2  0  0  0  0
 34 35  1  0  0  0  0
 35 36  1  0  0  0  0
 35 37  2  0  0  0  0
 32 38  1  0  0  0  0
M  END
>  <Name>
Cinepazide maleate

>  <CAS>
26328-04-1

>  <Formula>
C22H31N3O5.C4H4O4

>  <MolWt>
533.57 

>  <Bioactivity>
Cinepazide maleate is a maleate salt form of cinepazide which is a vasodilator.

>  <Pathways>
Others

>  <Target>
Others

>  <Receptor>
Others

>  <Reference>
1. Pourrias B, et al. Therapie. 1974 Jan-Feb;29(1):29-41.

$$$$
T1214
  Mrv1561503291623562D          

 36 37  0  0  1  0            999 V2000
   -0.8471    1.3703    0.0000 C   0  0  1  0  0  0  0  0  0  0  0  0
   -0.1326    0.9578    0.0000 C   0  0  2  0  0  0  0  0  0  0  0  0
   -0.1326    0.1328    0.0000 O   0  0  0  0  0  0  0  0  0  0  0  0
    0.5819   -0.2797    0.0000 C   0  0  1  0  0  0  0  0  0  0  0  0
    1.2963    0.1328    0.0000 O   0  0  0  0  0  0  0  0  0  0  0  0
    2.0108   -0.2797    0.0000 C   0  0  1  0  0  0  0  0  0  0  0  0
    2.0108   -1.1047    0.0000 C   0  0  1  0  0  0  0  0  0  0  0  0
    2.7253   -1.5172    0.0000 O   0  0  0  0  0  0  0  0  0  0  0  0
    1.2963   -1.5172    0.0000 C   0  0  1  0  0  0  0  0  0  0  0  0
    0.5819   -1.1047    0.0000 C   0  0  1  0  0  0  0  0  0  0  0  0
   -0.1326   -1.5172    0.0000 N   0  0  0  0  0  0  0  0  0  0  0  0
    1.2963   -2.3422    0.0000 O   0  0  0  0  0  0  0  0  0  0  0  0
    2.7253    0.1328    0.0000 C   0  0  0  0  0  0  0  0  0  0  0  0
    3.4397   -0.2797    0.0000 N   0  0  0  0  0  0  0  0  0  0  0  0
    0.5819    1.3703    0.0000 C   0  0  2  0  0  0  0  0  0  0  0  0
    0.5819    2.1953    0.0000 C   0  0  0  0  0  0  0  0  0  0  0  0
   -0.1326    2.6078    0.0000 C   0  0  2  0  0  0  0  0  0  0  0  0
   -0.8471    2.1953    0.0000 C   0  0  2  0  0  0  0  0  0  0  0  0
   -1.5616    2.6078    0.0000 O   0  0  0  0  0  0  0  0  0  0  0  0
   -0.1326    3.4328    0.0000 N   0  0  0  0  0  0  0  0  0  0  0  0
    1.2963    0.9578    0.0000 N   0  0  0  0  0  0  0  0  0  0  0  0
   -1.5616    0.9578    0.0000 O   0  0  0  0  0  0  0  0  0  0  0  0
   -1.5616    0.1328    0.0000 C   0  0  2  0  0  0  0  0  0  0  0  0
   -0.8941   -0.3521    0.0000 O   0  0  0  0  0  0  0  0  0  0  0  0
   -1.1491   -1.1368    0.0000 C   0  0  2  0  0  0  0  0  0  0  0  0
   -0.6641   -1.8042    0.0000 C   0  0  0  0  0  0  0  0  0  0  0  0
   -0.9997   -2.5579    0.0000 O   0  0  0  0  0  0  0  0  0  0  0  0
   -1.9741   -1.1368    0.0000 C   0  0  2  0  0  0  0  0  0  0  0  0
   -2.2290   -0.3521    0.0000 C   0  0  1  0  0  0  0  0  0  0  0  0
   -3.0136   -0.0972    0.0000 O   0  0  0  0  0  0  0  0  0  0  0  0
   -2.4590   -1.8042    0.0000 O   0  0  0  0  0  0  0  0  0  0  0  0
    6.0326   -0.8250    0.0000 O   0  0  0  0  0  0  0  0  0  0  0  0
    6.0326    0.0000    0.0000 S   0  0  0  0  0  0  0  0  0  0  0  0
    6.0326    0.8250    0.0000 O   0  0  0  0  0  0  0  0  0  0  0  0
    6.8576   -0.0000    0.0000 O   0  0  0  0  0  0  0  0  0  0  0  0
    5.2076    0.0000    0.0000 O   0  0  0  0  0  0  0  0  0  0  0  0
  1  2  1  0  0  0  0
  2  3  1  1  0  0  0
  4  3  1  1  0  0  0
  4  5  1  0  0  0  0
  5  6  1  0  0  0  0
  6  7  1  0  0  0  0
  7  8  1  1  0  0  0
  7  9  1  0  0  0  0
  9 10  1  0  0  0  0
  4 10  1  0  0  0  0
 10 11  1  1  0  0  0
  9 12  1  6  0  0  0
  6 13  1  6  0  0  0
 13 14  1  0  0  0  0
  2 15  1  0  0  0  0
 15 16  1  0  0  0  0
 16 17  1  0  0  0  0
 17 18  1  0  0  0  0
  1 18  1  0  0  0  0
 18 19  1  1  0  0  0
 17 20  1  6  0  0  0
 15 21  1  6  0  0  0
  1 22  1  6  0  0  0
 23 22  1  6  0  0  0
 23 24  1  0  0  0  0
 24 25  1  0  0  0  0
 25 26  1  6  0  0  0
 26 27  1  0  0  0  0
 25 28  1  0  0  0  0
 28 29  1  0  0  0  0
 23 29  1  0  0  0  0
 29 30  1  1  0  0  0
 28 31  1  1  0  0  0
 32 33  2  0  0  0  0
 33 34  1  0  0  0  0
 33 35  1  0  0  0  0
 33 36  2  0  0  0  0
M  END
>  <Name>
Ribostamycin sulfate

>  <CAS>
53797-35-6

>  <Formula>
C17H34N4O10.H2SO4

>  <MolWt>
552.55 

>  <Bioactivity>
Ribostamycin is an aminoglycoside antibiotic, containing a neutral sugar moiety, and is produced by Streptomyces ribosidi?cus.

>  <Pathways>
Microbiology & Virology

>  <Target>
Antibiotic

>  <Receptor>
Others

>  <Reference>
1. Horibe T, et al. Biochem Biophys Res Commun, 2001, 289(5), 967-972.

$$$$
T0251
  Mrv1561503291623562D          

 18 19  0  0  1  0            999 V2000
    0.0470   -1.7224    0.0000 C   0  0  1  0  0  0  0  0  0  0  0  0
   -0.7376   -1.4675    0.0000 N   0  0  0  0  0  0  0  0  0  0  0  0
   -1.3507   -2.0195    0.0000 C   0  0  0  0  0  0  0  0  0  0  0  0
   -2.1353   -1.7646    0.0000 N   0  0  0  0  0  0  0  0  0  0  0  0
   -2.3068   -0.9576    0.0000 C   0  0  0  0  0  0  0  0  0  0  0  0
   -3.0915   -0.7027    0.0000 N   0  0  0  0  0  0  0  0  0  0  0  0
   -1.6937   -0.4056    0.0000 C   0  0  0  0  0  0  0  0  0  0  0  0
   -0.9091   -0.6605    0.0000 C   0  0  0  0  0  0  0  0  0  0  0  0
   -1.1792   -2.8265    0.0000 O   0  0  0  0  0  0  0  0  0  0  0  0
    0.7145   -1.2375    0.0000 C   0  0  0  0  0  0  0  0  0  0  0  0
    1.3819   -1.7224    0.0000 C   0  0  2  0  0  0  0  0  0  0  0  0
    2.1665   -1.4675    0.0000 O   0  0  0  0  0  0  0  0  0  0  0  0
    1.1270   -2.5070    0.0000 C   0  0  2  0  0  0  0  0  0  0  0  0
    0.3020   -2.5070    0.0000 O   0  0  0  0  0  0  0  0  0  0  0  0
    1.6119   -3.1745    0.0000 C   0  0  0  0  0  0  0  0  0  0  0  0
    2.4324   -3.0882    0.0000 O   0  0  0  0  0  0  0  0  0  0  0  0
    0.3095   -0.5187    0.0000 F   0  0  0  0  0  0  0  0  0  0  0  0
    1.1195   -0.5187    0.0000 F   0  0  0  0  0  0  0  0  0  0  0  0
  1  2  1  1  0  0  0
  2  3  1  0  0  0  0
  3  4  1  0  0  0  0
  4  5  2  0  0  0  0
  5  6  1  0  0  0  0
  5  7  1  0  0  0  0
  7  8  2  0  0  0  0
  2  8  1  0  0  0  0
  3  9  2  0  0  0  0
  1 10  1  0  0  0  0
 10 11  1  0  0  0  0
 11 12  1  6  0  0  0
 11 13  1  0  0  0  0
 13 14  1  0  0  0  0
  1 14  1  0  0  0  0
 13 15  1  1  0  0  0
 15 16  1  0  0  0  0
 10 17  1  0  0  0  0
 10 18  1  0  0  0  0
M  END
>  <Name>
Gemcitabine

>  <CAS>
95058-81-4

>  <Formula>
C9H11F2N3O4

>  <MolWt>
263.20 

>  <Bioactivity>
Gemcitabine is a very potent and specific deoxycytidine analogue, used as chemotherapy.

>  <Pathways>
DNA Damage/DNA Repair; Ubiquitination

>  <Target>
UMP-CMP kinase inhibitor;Autophagy activator;DNA Synthesis inhibitor; Thymidylate synthase inhibitor

>  <Receptor>
UMP-CMP kinase;Autophagy ;DNA;Thymidylate synthase

>  <Reference>
1. Hertel LW, et al. Cancer Res, 1990, 50(14), 4417-4422.

$$$$
6153-33-9
  Mrv1561503291623562D          

 60 67  0  0  0  0            999 V2000
    1.1768   -0.0860    0.0000 C   0  0  0  0  0  0  0  0  0  0  0  0
    1.7288   -0.6991    0.0000 C   0  0  0  0  0  0  0  0  0  0  0  0
    1.4739   -1.4837    0.0000 C   0  0  0  0  0  0  0  0  0  0  0  0
    0.6669   -1.6552    0.0000 C   0  0  0  0  0  0  0  0  0  0  0  0
    0.1149   -1.0421    0.0000 C   0  0  0  0  0  0  0  0  0  0  0  0
    0.3698   -0.2575    0.0000 C   0  0  0  0  0  0  0  0  0  0  0  0
   -0.2976    0.2274    0.0000 N   0  0  0  0  0  0  0  0  0  0  0  0
   -0.9651   -0.2575    0.0000 C   0  0  0  0  0  0  0  0  0  0  0  0
   -0.7101   -1.0421    0.0000 C   0  0  0  0  0  0  0  0  0  0  0  0
   -1.2622   -1.6552    0.0000 C   0  0  0  0  0  0  0  0  0  0  0  0
   -2.0691   -1.4837    0.0000 N   0  0  0  0  0  0  0  0  0  0  0  0
   -2.6212   -2.0968    0.0000 C   0  0  0  0  0  0  0  0  0  0  0  0
   -2.3241   -0.6991    0.0000 C   0  0  0  0  0  0  0  0  0  0  0  0
   -1.7720   -0.0860    0.0000 C   0  0  0  0  0  0  0  0  0  0  0  0
   -0.2976    1.0524    0.0000 C   0  0  0  0  0  0  0  0  0  0  0  0
    0.4168    1.4649    0.0000 C   0  0  0  0  0  0  0  0  0  0  0  0
    0.4168    2.2899    0.0000 C   0  0  0  0  0  0  0  0  0  0  0  0
    1.1313    2.7024    0.0000 C   0  0  0  0  0  0  0  0  0  0  0  0
    1.8458    2.2899    0.0000 C   0  0  0  0  0  0  0  0  0  0  0  0
    1.8458    1.4649    0.0000 C   0  0  0  0  0  0  0  0  0  0  0  0
    1.1313    1.0524    0.0000 C   0  0  0  0  0  0  0  0  0  0  0  0
    8.0009   -0.0860    0.0000 C   0  0  0  0  0  0  0  0  0  0  0  0
    8.5529   -0.6991    0.0000 C   0  0  0  0  0  0  0  0  0  0  0  0
    8.2980   -1.4837    0.0000 C   0  0  0  0  0  0  0  0  0  0  0  0
    7.4910   -1.6552    0.0000 C   0  0  0  0  0  0  0  0  0  0  0  0
    6.9390   -1.0421    0.0000 C   0  0  0  0  0  0  0  0  0  0  0  0
    7.1939   -0.2575    0.0000 C   0  0  0  0  0  0  0  0  0  0  0  0
    6.5265    0.2274    0.0000 N   0  0  0  0  0  0  0  0  0  0  0  0
    5.8590   -0.2575    0.0000 C   0  0  0  0  0  0  0  0  0  0  0  0
    6.1140   -1.0421    0.0000 C   0  0  0  0  0  0  0  0  0  0  0  0
    5.5619   -1.6552    0.0000 C   0  0  0  0  0  0  0  0  0  0  0  0
    4.7550   -1.4837    0.0000 N   0  0  0  0  0  0  0  0  0  0  0  0
    4.2029   -2.0968    0.0000 C   0  0  0  0  0  0  0  0  0  0  0  0
    4.5000   -0.6991    0.0000 C   0  0  0  0  0  0  0  0  0  0  0  0
    5.0521   -0.0860    0.0000 C   0  0  0  0  0  0  0  0  0  0  0  0
    6.5265    1.0524    0.0000 C   0  0  0  0  0  0  0  0  0  0  0  0
    7.2409    1.4649    0.0000 C   0  0  0  0  0  0  0  0  0  0  0  0
    7.2409    2.2899    0.0000 C   0  0  0  0  0  0  0  0  0  0  0  0
    7.9554    2.7024    0.0000 C   0  0  0  0  0  0  0  0  0  0  0  0
    8.6699    2.2899    0.0000 C   0  0  0  0  0  0  0  0  0  0  0  0
    8.6699    1.4649    0.0000 C   0  0  0  0  0  0  0  0  0  0  0  0
    7.9554    1.0524    0.0000 C   0  0  0  0  0  0  0  0  0  0  0  0
   -0.7145   -7.0468    0.0000 C   0  0  0  0  0  0  0  0  0  0  0  0
   -1.4289   -6.6343    0.0000 C   0  0  0  0  0  0  0  0  0  0  0  0
   -1.4289   -5.8093    0.0000 C   0  0  0  0  0  0  0  0  0  0  0  0
   -0.7145   -5.3968    0.0000 C   0  0  0  0  0  0  0  0  0  0  0  0
    0.0000   -5.8093    0.0000 C   0  0  0  0  0  0  0  0  0  0  0  0
    0.7145   -5.3968    0.0000 C   0  0  0  0  0  0  0  0  0  0  0  0
    1.4289   -5.8093    0.0000 C   0  0  0  0  0  0  0  0  0  0  0  0
    1.4289   -6.6343    0.0000 C   0  0  0  0  0  0  0  0  0  0  0  0
    0.7145   -7.0468    0.0000 C   0  0  0  0  0  0  0  0  0  0  0  0
    0.0000   -6.6343    0.0000 C   0  0  0  0  0  0  0  0  0  0  0  0
    0.7145   -7.8718    0.0000 S   0  0  0  0  0  0  0  0  0  0  0  0
    0.7145   -8.6968    0.0000 O   0  0  0  0  0  0  0  0  0  0  0  0
    1.5395   -7.8718    0.0000 O   0  0  0  0  0  0  0  0  0  0  0  0
   -0.1105   -7.8718    0.0000 O   0  0  0  0  0  0  0  0  0  0  0  0
   -0.7145   -4.5718    0.0000 S   0  0  0  0  0  0  0  0  0  0  0  0
   -0.7145   -3.7468    0.0000 O   0  0  0  0  0  0  0  0  0  0  0  0
    0.1105   -4.5718    0.0000 O   0  0  0  0  0  0  0  0  0  0  0  0
   -1.5395   -4.5718    0.0000 O   0  0  0  0  0  0  0  0  0  0  0  0
  1  2  2  0  0  0  0
  2  3  1  0  0  0  0
  3  4  2  0  0  0  0
  4  5  1  0  0  0  0
  5  6  2  0  0  0  0
  1  6  1  0  0  0  0
  6  7  1  0  0  0  0
  7  8  1  0  0  0  0
  8  9  2  0  0  0  0
  5  9  1  0  0  0  0
  9 10  1  0  0  0  0
 10 11  1  0  0  0  0
 11 12  1  0  0  0  0
 11 13  1  0  0  0  0
 13 14  1  0  0  0  0
  8 14  1  0  0  0  0
  7 15  1  0  0  0  0
 15 16  1  0  0  0  0
 16 17  2  0  0  0  0
 17 18  1  0  0  0  0
 18 19  2  0  0  0  0
 19 20  1  0  0  0  0
 20 21  2  0  0  0  0
 16 21  1  0  0  0  0
 22 23  2  0  0  0  0
 23 24  1  0  0  0  0
 24 25  2  0  0  0  0
 25 26  1  0  0  0  0
 26 27  2  0  0  0  0
 22 27  1  0  0  0  0
 27 28  1  0  0  0  0
 28 29  1  0  0  0  0
 29 30  2  0  0  0  0
 26 30  1  0  0  0  0
 30 31  1  0  0  0  0
 31 32  1  0  0  0  0
 32 33  1  0  0  0  0
 32 34  1  0  0  0  0
 34 35  1  0  0  0  0
 29 35  1  0  0  0  0
 28 36  1  0  0  0  0
 36 37  1  0  0  0  0
 37 38  2  0  0  0  0
 38 39  1  0  0  0  0
 39 40  2  0  0  0  0
 40 41  1  0  0  0  0
 41 42  2  0  0  0  0
 37 42  1  0  0  0  0
 43 44  2  0  0  0  0
 44 45  1  0  0  0  0
 45 46  2  0  0  0  0
 46 47  1  0  0  0  0
 47 48  2  0  0  0  0
 48 49  1  0  0  0  0
 49 50  2  0  0  0  0
 50 51  1  0  0  0  0
 51 52  2  0  0  0  0
 43 52  1  0  0  0  0
 47 52  1  0  0  0  0
 51 53  1  0  0  0  0
 53 54  1  0  0  0  0
 53 55  2  0  0  0  0
 53 56  2  0  0  0  0
 46 57  1  0  0  0  0
 57 58  1  0  0  0  0
 57 59  2  0  0  0  0
 57 60  2  0  0  0  0
M  END
>  <Name>
Mebhydrolin napadisylate

>  <CAS>
6153-33-9

>  <Formula>
C19H20N2·1/2C10H8O6S2

>  <MolWt>
420.52 

>  <Bioactivity>
It is used for symptomatic relief of allergic symptoms caused by histamine release, including nasal allergies and allergic dermatosis.
Mebhydrolin has been shown to enhance the performance-deficit effects of alcohol.

>  <Pathways>
Neuroscience

>  <Target>
Histamine Receptor;AChR antagonist

>  <Receptor>
Histamine receptor;Muscarinic AChR

>  <Reference>
1. Franks HM, et al. Med J Aust. 1981 Oct 31;2(9):477-9.

$$$$
T0116
  Mrv1561503291623562D          

 28 31  0  0  0  0            999 V2000
   -0.0000    0.0000    0.0000 C   0  0  0  0  0  0  0  0  0  0  0  0
   -0.7145   -0.4125    0.0000 C   0  0  0  0  0  0  0  0  0  0  0  0
   -1.4289    0.0000    0.0000 F   0  0  0  0  0  0  0  0  0  0  0  0
   -0.7145   -1.2375    0.0000 C   0  0  0  0  0  0  0  0  0  0  0  0
   -0.0000   -1.6500    0.0000 C   0  0  0  0  0  0  0  0  0  0  0  0
    0.7145   -1.2375    0.0000 C   0  0  0  0  0  0  0  0  0  0  0  0
    0.7145   -0.4125    0.0000 C   0  0  0  0  0  0  0  0  0  0  0  0
    1.4289    0.0000    0.0000 C   0  0  0  0  0  0  0  0  0  0  0  0
    1.4289    0.8250    0.0000 O   0  0  0  0  0  0  0  0  0  0  0  0
    2.1434   -0.4125    0.0000 C   0  0  0  0  0  0  0  0  0  0  0  0
    2.1434   -1.2375    0.0000 C   0  0  0  0  0  0  0  0  0  0  0  0
    1.4289   -1.6500    0.0000 N   0  0  0  0  0  0  0  0  0  0  0  0
    1.4289   -2.4750    0.0000 C   0  0  0  0  0  0  0  0  0  0  0  0
    1.8414   -3.1895    0.0000 C   0  0  0  0  0  0  0  0  0  0  0  0
    1.0164   -3.1895    0.0000 C   0  0  0  0  0  0  0  0  0  0  0  0
    2.8579    0.0000    0.0000 C   0  0  0  0  0  0  0  0  0  0  0  0
    3.5724   -0.4125    0.0000 O   0  0  0  0  0  0  0  0  0  0  0  0
    2.8579    0.8250    0.0000 O   0  0  0  0  0  0  0  0  0  0  0  0
   -0.0000   -2.4750    0.0000 O   0  0  0  0  0  0  0  0  0  0  0  0
   -0.7145   -2.8875    0.0000 C   0  0  0  0  0  0  0  0  0  0  0  0
   -1.4289   -1.6500    0.0000 N   0  0  0  0  0  0  0  0  0  0  0  0
   -1.4289   -2.4750    0.0000 C   0  0  0  0  0  0  0  0  0  0  0  0
   -2.1434   -2.8875    0.0000 C   0  0  0  0  0  0  0  0  0  0  0  0
   -2.8579   -2.4750    0.0000 C   0  0  0  0  0  0  0  0  0  0  0  0
   -2.8579   -1.6500    0.0000 C   0  0  0  0  0  0  0  0  0  0  0  0
   -2.1434   -1.2375    0.0000 C   0  0  0  0  0  0  0  0  0  0  0  0
   -2.1434   -3.7125    0.0000 N   0  0  0  0  0  0  0  0  0  0  0  0
   -1.4289   -4.1250    0.0000 C   0  0  0  0  0  0  0  0  0  0  0  0
  1  2  2  0  0  0  0
  2  3  1  0  0  0  0
  2  4  1  0  0  0  0
  4  5  2  0  0  0  0
  5  6  1  0  0  0  0
  6  7  2  0  0  0  0
  1  7  1  0  0  0  0
  7  8  1  0  0  0  0
  8  9  2  0  0  0  0
  8 10  1  0  0  0  0
 10 11  2  0  0  0  0
 11 12  1  0  0  0  0
  6 12  1  0  0  0  0
 12 13  1  0  0  0  0
 13 14  1  0  0  0  0
 14 15  1  0  0  0  0
 13 15  1  0  0  0  0
 10 16  1  0  0  0  0
 16 17  1  0  0  0  0
 16 18  2  0  0  0  0
  5 19  1  0  0  0  0
 19 20  1  0  0  0  0
  4 21  1  0  0  0  0
 21 22  1  0  0  0  0
 22 23  1  0  0  0  0
 23 24  1  0  0  0  0
 24 25  1  0  0  0  0
 25 26  1  0  0  0  0
 21 26  1  0  0  0  0
 23 27  1  0  0  0  0
 27 28  1  0  0  0  0
M  END
>  <Name>
Balofloxacin

>  <CAS>
127294-70-6

>  <Formula>
C20H24FN3O4

>  <MolWt>
389.42 

>  <Bioactivity>
Balofloxacin is a quinolone antibiotic, inhibiting the synthesis of bacterial DNA by interference with the enqyme DNA gyrase.

>  <Pathways>
DNA Damage/DNA Repair;Microbiology & Virology

>  <Target>
Antibiotic; DNA grase inhibitor

>  <Receptor>
DNA grase

>  <Reference>
1. Alksne L. Curr Opin Investig Drugs. 2003 Feb;4(2):224-9.

$$$$
13636-18-5
  Mrv1561503291623562D          

 25 26  0  0  0  0            999 V2000
   -1.8457   -1.2375    0.0000 C   0  0  0  0  0  0  0  0  0  0  0  0
   -2.5602   -1.6500    0.0000 C   0  0  0  0  0  0  0  0  0  0  0  0
   -3.2747   -1.2375    0.0000 C   0  0  0  0  0  0  0  0  0  0  0  0
   -3.2747   -0.4125    0.0000 C   0  0  0  0  0  0  0  0  0  0  0  0
   -2.5602   -0.0000    0.0000 C   0  0  0  0  0  0  0  0  0  0  0  0
   -1.8457   -0.4125    0.0000 C   0  0  0  0  0  0  0  0  0  0  0  0
   -1.1312    0.0000    0.0000 C   0  0  0  0  0  0  0  0  0  0  0  0
   -1.1312    0.8250    0.0000 C   0  0  0  0  0  0  0  0  0  0  0  0
   -1.8457    1.2375    0.0000 C   0  0  0  0  0  0  0  0  0  0  0  0
   -1.8457    2.0625    0.0000 C   0  0  0  0  0  0  0  0  0  0  0  0
   -1.1312    2.4750    0.0000 C   0  0  0  0  0  0  0  0  0  0  0  0
   -0.4168    2.0625    0.0000 C   0  0  0  0  0  0  0  0  0  0  0  0
   -0.4168    1.2375    0.0000 C   0  0  0  0  0  0  0  0  0  0  0  0
   -0.4168   -0.4125    0.0000 C   0  0  0  0  0  0  0  0  0  0  0  0
    0.2977    0.0000    0.0000 C   0  0  0  0  0  0  0  0  0  0  0  0
    1.0122   -0.4125    0.0000 N   0  3  0  0  0  0  0  0  0  0  0  0
    1.7266    0.0000    0.0000 C   0  0  0  0  0  0  0  0  0  0  0  0
    2.4411   -0.4125    0.0000 C   0  0  0  0  0  0  0  0  0  0  0  0
    3.1556    0.0000    0.0000 C   0  0  0  0  0  0  0  0  0  0  0  0
    3.8701   -0.4125    0.0000 C   0  0  0  0  0  0  0  0  0  0  0  0
    3.8701   -1.2375    0.0000 C   0  0  0  0  0  0  0  0  0  0  0  0
    3.1556   -1.6500    0.0000 C   0  0  0  0  0  0  0  0  0  0  0  0
    2.4411   -1.2375    0.0000 C   0  0  0  0  0  0  0  0  0  0  0  0
    1.7266    0.8250    0.0000 C   0  0  0  0  0  0  0  0  0  0  0  0
    6.2272    0.0000    0.0000 Cl  0  5  0  0  0  0  0  0  0  0  0  0
  1  2  2  0  0  0  0
  2  3  1  0  0  0  0
  3  4  2  0  0  0  0
  4  5  1  0  0  0  0
  5  6  2  0  0  0  0
  1  6  1  0  0  0  0
  6  7  1  0  0  0  0
  7  8  1  0  0  0  0
  8  9  2  0  0  0  0
  9 10  1  0  0  0  0
 10 11  2  0  0  0  0
 11 12  1  0  0  0  0
 12 13  2  0  0  0  0
  8 13  1  0  0  0  0
  7 14  1  0  0  0  0
 14 15  1  0  0  0  0
 15 16  1  0  0  0  0
 16 17  1  0  0  0  0
 17 18  1  0  0  0  0
 18 19  2  0  0  0  0
 19 20  1  0  0  0  0
 20 21  2  0  0  0  0
 21 22  1  0  0  0  0
 22 23  2  0  0  0  0
 18 23  1  0  0  0  0
 17 24  1  0  0  0  0
M  CHG  2  16   1  25  -1
M  END
>  <Name>
Fendiline HCl

>  <CAS>
13636-18-5

>  <Formula>
C23H26ClN

>  <MolWt>
351.91 

>  <Bioactivity>
Coronary vasodilator; inhibits calcium function in muscle cells in excitation-contraction coupling; proposed as antiarrhythmic and antianginal agents.  

>  <Pathways>
Membrane Transporter/Ion Channel

>  <Target>
Calcium Channel inhibitor

>  <Receptor>
Calcium Channel

>  <Reference>
1. Sprügel W, et al. Arzneimittelforschung. 1977;27(3):571-4.

$$$$
132203-70-4
  Mrv1561503291623562D          

 36 38  0  0  0  0            999 V2000
    2.8579   -7.4250    0.0000 C   0  0  0  0  0  0  0  0  0  0  0  0
    2.8579   -8.2500    0.0000 C   0  0  0  0  0  0  0  0  0  0  0  0
    2.1434   -8.6625    0.0000 C   0  0  0  0  0  0  0  0  0  0  0  0
    1.4289   -8.2500    0.0000 C   0  0  0  0  0  0  0  0  0  0  0  0
    1.4289   -7.4250    0.0000 C   0  0  0  0  0  0  0  0  0  0  0  0
    2.1434   -7.0125    0.0000 C   0  0  0  0  0  0  0  0  0  0  0  0
    2.1434   -6.1875    0.0000 C   0  0  0  0  0  0  0  0  0  0  0  0
    1.4289   -5.7750    0.0000 C   0  0  0  0  0  0  0  0  0  0  0  0
    1.4289   -4.9500    0.0000 C   0  0  0  0  0  0  0  0  0  0  0  0
    2.1434   -4.5375    0.0000 N   0  0  0  0  0  0  0  0  0  0  0  0
    2.8579   -4.9500    0.0000 C   0  0  0  0  0  0  0  0  0  0  0  0
    2.8579   -5.7750    0.0000 C   0  0  0  0  0  0  0  0  0  0  0  0
    3.5724   -6.1875    0.0000 C   0  0  0  0  0  0  0  0  0  0  0  0
    4.2868   -5.7750    0.0000 O   0  0  0  0  0  0  0  0  0  0  0  0
    5.0013   -6.1875    0.0000 C   0  0  0  0  0  0  0  0  0  0  0  0
    5.7158   -5.7750    0.0000 C   0  0  0  0  0  0  0  0  0  0  0  0
    6.4302   -6.1875    0.0000 O   0  0  0  0  0  0  0  0  0  0  0  0
    7.1447   -5.7750    0.0000 C   0  0  0  0  0  0  0  0  0  0  0  0
    3.5724   -7.0125    0.0000 O   0  0  0  0  0  0  0  0  0  0  0  0
    3.5724   -4.5375    0.0000 C   0  0  0  0  0  0  0  0  0  0  0  0
    0.7145   -4.5375    0.0000 C   0  0  0  0  0  0  0  0  0  0  0  0
    0.7145   -6.1875    0.0000 C   0  0  0  0  0  0  0  0  0  0  0  0
   -0.0000   -5.7750    0.0000 O   0  0  0  0  0  0  0  0  0  0  0  0
   -0.7145   -6.1875    0.0000 C   0  0  0  0  0  0  0  0  0  0  0  0
   -1.4289   -5.7750    0.0000 C   0  0  0  0  0  0  0  0  0  0  0  0
   -2.1434   -6.1875    0.0000 C   0  0  0  0  0  0  0  0  0  0  0  0
   -2.8579   -5.7750    0.0000 C   0  0  0  0  0  0  0  0  0  0  0  0
   -3.5724   -6.1875    0.0000 C   0  0  0  0  0  0  0  0  0  0  0  0
   -4.2868   -5.7750    0.0000 C   0  0  0  0  0  0  0  0  0  0  0  0
   -4.2868   -4.9500    0.0000 C   0  0  0  0  0  0  0  0  0  0  0  0
   -3.5724   -4.5375    0.0000 C   0  0  0  0  0  0  0  0  0  0  0  0
   -2.8579   -4.9500    0.0000 C   0  0  0  0  0  0  0  0  0  0  0  0
    0.7145   -7.0125    0.0000 O   0  0  0  0  0  0  0  0  0  0  0  0
    3.5724   -8.6625    0.0000 N   0  3  0  0  0  0  0  0  0  0  0  0
    3.5724   -9.4875    0.0000 O   0  0  0  0  0  0  0  0  0  0  0  0
    4.2868   -8.2500    0.0000 O   0  5  0  0  0  0  0  0  0  0  0  0
  1  2  2  0  0  0  0
  2  3  1  0  0  0  0
  3  4  2  0  0  0  0
  4  5  1  0  0  0  0
  5  6  2  0  0  0  0
  1  6  1  0  0  0  0
  6  7  1  0  0  0  0
  7  8  1  0  0  0  0
  8  9  2  0  0  0  0
  9 10  1  0  0  0  0
 10 11  1  0  0  0  0
 11 12  2  0  0  0  0
  7 12  1  0  0  0  0
 12 13  1  0  0  0  0
 13 14  1  0  0  0  0
 14 15  1  0  0  0  0
 15 16  1  0  0  0  0
 16 17  1  0  0  0  0
 17 18  1  0  0  0  0
 13 19  2  0  0  0  0
 11 20  1  0  0  0  0
  9 21  1  0  0  0  0
  8 22  1  0  0  0  0
 22 23  1  0  0  0  0
 23 24  1  0  0  0  0
 24 25  1  0  0  0  0
 25 26  2  0  0  0  0
 26 27  1  0  0  0  0
 27 28  2  0  0  0  0
 28 29  1  0  0  0  0
 29 30  2  0  0  0  0
 30 31  1  0  0  0  0
 31 32  2  0  0  0  0
 27 32  1  0  0  0  0
 22 33  2  0  0  0  0
  2 34  1  0  0  0  0
 34 35  2  0  0  0  0
 34 36  1  0  0  0  0
M  CHG  2  34   1  36  -1
M  END
>  <Name>
Cilnidipine

>  <CAS>
132203-70-4

>  <Formula>
C27H28N2O7

>  <MolWt>
492.53 

>  <Bioactivity>
Dual L- and N-type calcium channel blocker that displays antihypertensive, sympatholytic and neuroprotective activity. Lowers mean blood pressure and reduces the size of cerebral infarction in the rat model of focal brain ischemia.

>  <Pathways>
Membrane Transporter/Ion Channel

>  <Target>
Calcium Channel

>  <Receptor>
Dual L- and N-type calcium channel

>  <Reference>
1. Takahara A, et al. Hypertens Res,2003, 26(9), 743-747.

$$$$
3254-89-5
  Mrv1561503291623562D          

 25 25  0  0  0  0            999 V2000
    0.4125    0.0000    0.0000 H   0  3  0  0  0  0  0  0  0  0  0  0
    5.7677   -0.2217    0.0000 C   0  0  0  0  0  0  0  0  0  0  0  0
    6.4821    0.1908    0.0000 C   0  0  0  0  0  0  0  0  0  0  0  0
    6.4821    1.0158    0.0000 C   0  0  0  0  0  0  0  0  0  0  0  0
    6.4821    1.8408    0.0000 O   0  0  0  0  0  0  0  0  0  0  0  0
    5.6571    1.0158    0.0000 C   0  0  0  0  0  0  0  0  0  0  0  0
    5.2446    0.3014    0.0000 C   0  0  0  0  0  0  0  0  0  0  0  0
    4.4196    0.3014    0.0000 C   0  0  0  0  0  0  0  0  0  0  0  0
    4.0071   -0.4131    0.0000 N   0  0  0  0  0  0  0  0  0  0  0  0
    4.4196   -1.1276    0.0000 C   0  0  0  0  0  0  0  0  0  0  0  0
    4.0071   -1.8420    0.0000 C   0  0  0  0  0  0  0  0  0  0  0  0
    3.1821   -1.8420    0.0000 C   0  0  0  0  0  0  0  0  0  0  0  0
    2.7696   -1.1276    0.0000 C   0  0  0  0  0  0  0  0  0  0  0  0
    3.1821   -0.4131    0.0000 C   0  0  0  0  0  0  0  0  0  0  0  0
    7.3071    1.0158    0.0000 C   0  0  0  0  0  0  0  0  0  0  0  0
    7.7196    1.7303    0.0000 C   0  0  0  0  0  0  0  0  0  0  0  0
    8.5446    1.7303    0.0000 C   0  0  0  0  0  0  0  0  0  0  0  0
    8.9571    1.0158    0.0000 C   0  0  0  0  0  0  0  0  0  0  0  0
    8.5446    0.3014    0.0000 C   0  0  0  0  0  0  0  0  0  0  0  0
    7.7196    0.3014    0.0000 C   0  0  0  0  0  0  0  0  0  0  0  0
    7.1966   -0.2217    0.0000 C   0  0  0  0  0  0  0  0  0  0  0  0
    7.1966   -1.0467    0.0000 C   0  0  0  0  0  0  0  0  0  0  0  0
    6.4821   -1.4592    0.0000 C   0  0  0  0  0  0  0  0  0  0  0  0
    5.7677   -1.0467    0.0000 C   0  0  0  0  0  0  0  0  0  0  0  0
   -0.4125    0.0000    0.0000 Cl  0  5  0  0  0  0  0  0  0  0  0  0
  2  3  2  0  0  0  0
  3  4  1  0  0  0  0
  4  5  1  0  0  0  0
  4  6  1  0  0  0  0
  6  7  1  0  0  0  0
  7  8  1  0  0  0  0
  8  9  1  0  0  0  0
  9 10  1  0  0  0  0
 10 11  1  0  0  0  0
 11 12  1  0  0  0  0
 12 13  1  0  0  0  0
 13 14  1  0  0  0  0
  9 14  1  0  0  0  0
  4 15  1  0  0  0  0
 15 16  2  0  0  0  0
 16 17  1  0  0  0  0
 17 18  2  0  0  0  0
 18 19  1  0  0  0  0
 19 20  2  0  0  0  0
 15 20  1  0  0  0  0
  3 21  1  0  0  0  0
 21 22  2  0  0  0  0
 22 23  1  0  0  0  0
 23 24  2  0  0  0  0
  2 24  1  0  0  0  0
M  CHG  2   1   1  25  -1
M  END
>  <Name>
Diphenidol HCl

>  <CAS>
3254-89-5

>  <Formula>
C21H28ClNO

>  <MolWt>
345.91 

>  <Bioactivity>
Diphenidol is an antiemetic agent used in the treatment of vomiting and vertigo. Diphenidol overdose may result in serious toxicity in children.

>  <Pathways>
Neuroscience

>  <Target>
AChR antagonist

>  <Receptor>
Muscarinic AChR

>  <Reference>
1. Leung YM, et al. Pharmacol Rep. 2012;64(3):739-44.

$$$$
167221-71-8
  Mrv1561503291623562D          

 30 31  0  0  0  0            999 V2000
   -0.7145    2.0625    0.0000 C   0  0  0  0  0  0  0  0  0  0  0  0
   -0.7145    1.2375    0.0000 C   0  0  0  0  0  0  0  0  0  0  0  0
   -1.4289    0.8250    0.0000 C   0  0  0  0  0  0  0  0  0  0  0  0
   -1.4289    0.0000    0.0000 C   0  0  0  0  0  0  0  0  0  0  0  0
   -2.1434   -0.4125    0.0000 C   0  0  0  0  0  0  0  0  0  0  0  0
   -2.8579    0.0000    0.0000 N   0  0  0  0  0  0  0  0  0  0  0  0
   -2.8579    0.8250    0.0000 C   0  0  0  0  0  0  0  0  0  0  0  0
   -2.1434    1.2375    0.0000 C   0  0  0  0  0  0  0  0  0  0  0  0
   -2.1434    2.0625    0.0000 C   0  0  0  0  0  0  0  0  0  0  0  0
   -2.8579    2.4750    0.0000 O   0  0  0  0  0  0  0  0  0  0  0  0
   -2.8579    3.3000    0.0000 C   0  0  0  0  0  0  0  0  0  0  0  0
   -1.4289    2.4750    0.0000 O   0  0  0  0  0  0  0  0  0  0  0  0
   -3.5724    1.2375    0.0000 C   0  0  0  0  0  0  0  0  0  0  0  0
   -2.1434   -1.2375    0.0000 C   0  0  0  0  0  0  0  0  0  0  0  0
   -0.7145   -0.4125    0.0000 C   0  0  0  0  0  0  0  0  0  0  0  0
    0.0000    0.0000    0.0000 O   0  0  0  0  0  0  0  0  0  0  0  0
    0.7145   -0.4125    0.0000 C   0  0  0  0  0  0  0  0  0  0  0  0
    1.4289    0.0000    0.0000 O   0  0  0  0  0  0  0  0  0  0  0  0
    2.1434   -0.4125    0.0000 C   0  0  0  0  0  0  0  0  0  0  0  0
    2.8579    0.0000    0.0000 C   0  0  0  0  0  0  0  0  0  0  0  0
    3.5724   -0.4125    0.0000 C   0  0  0  0  0  0  0  0  0  0  0  0
    4.2868    0.0000    0.0000 C   0  0  0  0  0  0  0  0  0  0  0  0
    2.1434   -1.2375    0.0000 O   0  0  0  0  0  0  0  0  0  0  0  0
   -0.7145   -1.2375    0.0000 O   0  0  0  0  0  0  0  0  0  0  0  0
   -0.0000    0.8250    0.0000 C   0  0  0  0  0  0  0  0  0  0  0  0
    0.7145    1.2375    0.0000 C   0  0  0  0  0  0  0  0  0  0  0  0
    0.7145    2.0625    0.0000 C   0  0  0  0  0  0  0  0  0  0  0  0
    0.0000    2.4750    0.0000 C   0  0  0  0  0  0  0  0  0  0  0  0
    1.4289    0.8250    0.0000 Cl  0  0  0  0  0  0  0  0  0  0  0  0
    0.4849    0.1576    0.0000 Cl  0  0  0  0  0  0  0  0  0  0  0  0
  1  2  2  0  0  0  0
  2  3  1  0  0  0  0
  3  4  1  0  0  0  0
  4  5  2  0  0  0  0
  5  6  1  0  0  0  0
  6  7  1  0  0  0  0
  7  8  2  0  0  0  0
  3  8  1  0  0  0  0
  8  9  1  0  0  0  0
  9 10  1  0  0  0  0
 10 11  1  0  0  0  0
  9 12  2  0  0  0  0
  7 13  1  0  0  0  0
  5 14  1  0  0  0  0
  4 15  1  0  0  0  0
 15 16  1  0  0  0  0
 16 17  1  0  0  0  0
 17 18  1  0  0  0  0
 18 19  1  0  0  0  0
 19 20  1  0  0  0  0
 20 21  1  0  0  0  0
 21 22  1  0  0  0  0
 19 23  2  0  0  0  0
 15 24  2  0  0  0  0
  2 25  1  0  0  0  0
 25 26  2  0  0  0  0
 26 27  1  0  0  0  0
 27 28  2  0  0  0  0
  1 28  1  0  0  0  0
 26 29  1  0  0  0  0
 25 30  1  0  0  0  0
M  END
>  <Name>
Clevidipine butyrate

>  <CAS>
167221-71-8

>  <Formula>
C21H23Cl2NO6

>  <MolWt>
456.32 

>  <Bioactivity>
Clevidipine Butyrate is a dihydropyridine calcium channel blocker, uses as an agent for the reduction of blood pressure.

>  <Pathways>
Membrane Transporter/Ion Channel

>  <Target>
Calcium Channel inhibitor

>  <Receptor>
Calcium Channel ;ChE

>  <Reference>
1. Ericsson H, et al. Eur J Pharm Sci. 1999 Apr;8(1):29-37.

$$$$
108341-18-0
  Mrv1561503291623562D          

 23 21  0  0  1  0            999 V2000
    0.3572    0.2063    0.0000 C   0  0  2  0  0  0  0  0  0  0  0  0
    0.3572    1.0313    0.0000 O   0  0  0  0  0  0  0  0  0  0  0  0
   -0.3572   -0.2062    0.0000 C   0  0  1  0  0  0  0  0  0  0  0  0
   -0.3572   -1.0312    0.0000 O   0  0  0  0  0  0  0  0  0  0  0  0
   -1.0717    0.2063    0.0000 C   0  0  0  0  0  0  0  0  0  0  0  0
   -1.7862   -0.2063    0.0000 O   0  0  0  0  0  0  0  0  0  0  0  0
   -1.0717    1.0312    0.0000 O   0  0  0  0  0  0  0  0  0  0  0  0
    1.0717   -0.2062    0.0000 C   0  0  0  0  0  0  0  0  0  0  0  0
    1.7862    0.2063    0.0000 O   0  0  0  0  0  0  0  0  0  0  0  0
    1.0717   -1.0312    0.0000 O   0  0  0  0  0  0  0  0  0  0  0  0
    5.1008    1.1344    0.0000 C   0  0  2  0  0  0  0  0  0  0  0  0
    4.3864    1.5469    0.0000 O   0  0  0  0  0  0  0  0  0  0  0  0
    5.1008    0.3094    0.0000 C   0  0  0  0  0  0  0  0  0  0  0  0
    5.8153   -0.1031    0.0000 C   0  0  0  0  0  0  0  0  0  0  0  0
    5.8153   -0.9281    0.0000 C   0  0  0  0  0  0  0  0  0  0  0  0
    5.1008   -1.3406    0.0000 C   0  0  0  0  0  0  0  0  0  0  0  0
    5.1008   -2.1656    0.0000 O   0  0  0  0  0  0  0  0  0  0  0  0
    4.3864   -0.9281    0.0000 C   0  0  0  0  0  0  0  0  0  0  0  0
    4.3864   -0.1031    0.0000 C   0  0  0  0  0  0  0  0  0  0  0  0
    3.6719   -1.3406    0.0000 O   0  0  0  0  0  0  0  0  0  0  0  0
    5.8153    1.5469    0.0000 C   0  0  0  0  0  0  0  0  0  0  0  0
    5.8153    2.3719    0.0000 N   0  0  0  0  0  0  0  0  0  0  0  0
    0.0000   -3.8156    0.0000 O   0  0  0  0  0  0  0  0  0  0  0  0
  1  2  1  1  0  0  0
  1  3  1  0  0  0  0
  3  4  1  1  0  0  0
  3  5  1  0  0  0  0
  5  6  2  0  0  0  0
  5  7  1  0  0  0  0
  1  8  1  0  0  0  0
  8  9  2  0  0  0  0
  8 10  1  0  0  0  0
 11 12  1  1  0  0  0
 11 13  1  0  0  0  0
 13 14  2  0  0  0  0
 14 15  1  0  0  0  0
 15 16  2  0  0  0  0
 16 17  1  0  0  0  0
 16 18  1  0  0  0  0
 18 19  2  0  0  0  0
 13 19  1  0  0  0  0
 18 20  1  0  0  0  0
 11 21  1  0  0  0  0
 21 22  1  0  0  0  0
M  END
>  <Name>
Noradrenaline bitartrate monohydrate

>  <CAS>
108341-18-0

>  <Formula>
C8H11NO3.C4H6O6.H2O

>  <MolWt>
337.28 

>  <Bioactivity>
Noradrenaline bitartrate monohydrate is a direct alpha-adrenergic receptors stimulator.

>  <Pathways>
GPCR/G Protein

>  <Target>
Adrenergic Receptor agonist

>  <Receptor>
?-adrenergic receptor

>  <Reference>
1. Hilaire G, et al. Auton Neurosci, 2006, 126-127, 320-331.

$$$$
23672-07-3
  Mrv1561503291623562D          

 23 24  0  0  0  0            999 V2000
    0.7145   -0.4125    0.0000 C   0  0  0  0  0  0  0  0  0  0  0  0
   -0.0000   -0.0000    0.0000 C   0  0  0  0  0  0  0  0  0  0  0  0
   -0.7145   -0.4125    0.0000 S   0  0  0  0  0  0  0  0  0  0  0  0
   -1.4289   -0.8250    0.0000 O   0  0  0  0  0  0  0  0  0  0  0  0
   -0.3020   -1.1270    0.0000 O   0  0  0  0  0  0  0  0  0  0  0  0
   -1.1270    0.3020    0.0000 N   0  0  0  0  0  0  0  0  0  0  0  0
   -0.0000    0.8250    0.0000 C   0  0  0  0  0  0  0  0  0  0  0  0
    0.7145    1.2375    0.0000 C   0  0  0  0  0  0  0  0  0  0  0  0
    1.4289    0.8250    0.0000 C   0  0  0  0  0  0  0  0  0  0  0  0
    1.4289   -0.0000    0.0000 C   0  0  0  0  0  0  0  0  0  0  0  0
    2.1434   -0.4125    0.0000 C   0  0  0  0  0  0  0  0  0  0  0  0
    2.1434   -1.2375    0.0000 N   0  0  0  0  0  0  0  0  0  0  0  0
    2.8579   -1.6500    0.0000 C   0  0  0  0  0  0  0  0  0  0  0  0
    2.8579   -2.4750    0.0000 C   0  0  0  0  0  0  0  0  0  0  0  0
    3.5253   -2.9599    0.0000 N   0  0  0  0  0  0  0  0  0  0  0  0
    4.3099   -2.7050    0.0000 C   0  0  0  0  0  0  0  0  0  0  0  0
    4.4815   -1.8980    0.0000 C   0  0  0  0  0  0  0  0  0  0  0  0
    3.2704   -3.7445    0.0000 C   0  0  0  0  0  0  0  0  0  0  0  0
    2.4454   -3.7445    0.0000 C   0  0  0  0  0  0  0  0  0  0  0  0
    2.1904   -2.9599    0.0000 C   0  0  0  0  0  0  0  0  0  0  0  0
    2.8579   -0.0000    0.0000 O   0  0  0  0  0  0  0  0  0  0  0  0
    2.1434    1.2375    0.0000 O   0  0  0  0  0  0  0  0  0  0  0  0
    2.8579    0.8250    0.0000 C   0  0  0  0  0  0  0  0  0  0  0  0
  1  2  2  0  0  0  0
  2  3  1  0  0  0  0
  3  4  2  0  0  0  0
  3  5  2  0  0  0  0
  3  6  1  0  0  0  0
  2  7  1  0  0  0  0
  7  8  2  0  0  0  0
  8  9  1  0  0  0  0
  9 10  2  0  0  0  0
  1 10  1  0  0  0  0
 10 11  1  0  0  0  0
 11 12  1  0  0  0  0
 12 13  1  0  0  0  0
 13 14  1  0  0  0  0
 14 15  1  0  0  0  0
 15 16  1  0  0  0  0
 16 17  1  0  0  0  0
 15 18  1  0  0  0  0
 18 19  1  0  0  0  0
 19 20  1  0  0  0  0
 14 20  1  0  0  0  0
 11 21  2  0  0  0  0
  9 22  1  0  0  0  0
 22 23  1  0  0  0  0
M  END
>  <Name>
Levosulpiride

>  <CAS>
23672-07-3

>  <Formula>
C15H23N3O4S

>  <MolWt>
341.43 

>  <Bioactivity>
Levosulpiride is a selective antagonist for D2 dopamine receptors used as an antipsychotic and prokinetic agent.

>  <Pathways>
Neuroscience

>  <Target>
Dopamine Receptor antagonist

>  <Receptor>
Dopamine receptor

>  <Reference>
1. Saporito F, et al. Int J Cardiol. 2014 Aug 1;175(2):383-4. 

$$$$
T1217
  Mrv1561503291623562D          

 26 26  0  0  0  0            999 V2000
    0.4125    0.0000    0.0000 H   0  3  0  0  0  0  0  0  0  0  0  0
    6.3420    1.6328    0.0000 C   0  0  0  0  0  0  0  0  0  0  0  0
    7.0565    1.2203    0.0000 C   0  0  0  0  0  0  0  0  0  0  0  0
    7.7709    1.6328    0.0000 C   0  0  0  0  0  0  0  0  0  0  0  0
    7.7709    2.4578    0.0000 C   0  0  0  0  0  0  0  0  0  0  0  0
    7.0565    2.8703    0.0000 C   0  0  0  0  0  0  0  0  0  0  0  0
    6.3420    2.4578    0.0000 C   0  0  0  0  0  0  0  0  0  0  0  0
    8.4854    2.8703    0.0000 C   0  0  0  0  0  0  0  0  0  0  0  0
    9.1999    2.4578    0.0000 C   0  0  0  0  0  0  0  0  0  0  0  0
    9.1999    1.6328    0.0000 C   0  0  0  0  0  0  0  0  0  0  0  0
    8.4854    1.2203    0.0000 C   0  0  0  0  0  0  0  0  0  0  0  0
    7.0565    0.3953    0.0000 C   0  0  0  0  0  0  0  0  0  0  0  0
    6.3420   -0.0172    0.0000 N   0  0  0  0  0  0  0  0  0  0  0  0
    6.3420   -0.8422    0.0000 C   0  0  0  0  0  0  0  0  0  0  0  0
    5.6275   -1.2547    0.0000 C   0  0  0  0  0  0  0  0  0  0  0  0
    5.6275   -2.0797    0.0000 C   0  0  0  0  0  0  0  0  0  0  0  0
    4.9131   -2.4922    0.0000 C   0  0  0  0  0  0  0  0  0  0  0  0
    4.1986   -2.0797    0.0000 C   0  0  0  0  0  0  0  0  0  0  0  0
    3.4841   -2.4922    0.0000 C   0  0  0  0  0  0  0  0  0  0  0  0
    2.7696   -2.9047    0.0000 C   0  0  0  0  0  0  0  0  0  0  0  0
    3.0716   -1.7777    0.0000 C   0  0  0  0  0  0  0  0  0  0  0  0
    3.8966   -3.2067    0.0000 C   0  0  0  0  0  0  0  0  0  0  0  0
    4.1986   -1.2547    0.0000 C   0  0  0  0  0  0  0  0  0  0  0  0
    4.9131   -0.8422    0.0000 C   0  0  0  0  0  0  0  0  0  0  0  0
    5.6275    0.3953    0.0000 C   0  0  0  0  0  0  0  0  0  0  0  0
   -0.4125    0.0000    0.0000 Cl  0  5  0  0  0  0  0  0  0  0  0  0
  2  3  2  0  0  0  0
  3  4  1  0  0  0  0
  4  5  2  0  0  0  0
  5  6  1  0  0  0  0
  6  7  2  0  0  0  0
  2  7  1  0  0  0  0
  5  8  1  0  0  0  0
  8  9  2  0  0  0  0
  9 10  1  0  0  0  0
 10 11  2  0  0  0  0
  4 11  1  0  0  0  0
  3 12  1  0  0  0  0
 12 13  1  0  0  0  0
 13 14  1  0  0  0  0
 14 15  1  0  0  0  0
 15 16  2  0  0  0  0
 16 17  1  0  0  0  0
 17 18  2  0  0  0  0
 18 19  1  0  0  0  0
 19 20  1  0  0  0  0
 19 21  1  0  0  0  0
 19 22  1  0  0  0  0
 18 23  1  0  0  0  0
 23 24  2  0  0  0  0
 15 24  1  0  0  0  0
 13 25  1  0  0  0  0
M  CHG  2   1   1  26  -1
M  END
>  <Name>
Butenafine HCl

>  <CAS>
101827-46-7

>  <Formula>
C23H27N.HCl

>  <MolWt>
353.19 

>  <Bioactivity>
Butenafine hydrochloride is a synthetic benzylamine antifungal, works by inhibiting the synthesis of sterols by inhibiting squalene epoxidase.

>  <Pathways>
Microbiology & Virology

>  <Target>
Antibiotic

>  <Receptor>
Squalene epoxidase

>  <Reference>
1. Arika T, et al. Antimicrob Agents Chemother, 1990, 34(11), 2250-2253.

$$$$
T1277
  Mrv1561503291623562D          

 29 28  0  0  1  0            999 V2000
   -1.6389    2.4397    0.0000 C   0  0  0  0  0  0  0  0  0  0  0  0
   -0.8319    2.2682    0.0000 C   0  0  0  0  0  0  0  0  0  0  0  0
   -0.7457    1.4477    0.0000 C   0  0  0  0  0  0  0  0  0  0  0  0
   -1.4994    1.1121    0.0000 N   0  0  0  0  0  0  0  0  0  0  0  0
   -2.0514    1.7252    0.0000 C   0  0  0  0  0  0  0  0  0  0  0  0
   -1.6709    0.3052    0.0000 C   0  0  0  0  0  0  0  0  0  0  0  0
   -0.0312    1.0352    0.0000 C   0  0  0  0  0  0  0  0  0  0  0  0
    0.6832    1.4477    0.0000 O   0  0  0  0  0  0  0  0  0  0  0  0
   -0.0312    0.2102    0.0000 N   0  0  0  0  0  0  0  0  0  0  0  0
    0.6832   -0.2023    0.0000 C   0  0  0  0  0  0  0  0  0  0  0  0
    0.6832   -1.0273    0.0000 C   0  0  0  0  0  0  0  0  0  0  0  0
    1.3977   -1.4398    0.0000 O   0  0  0  0  0  0  0  0  0  0  0  0
    1.3977   -2.2648    0.0000 C   0  0  0  0  0  0  0  0  0  0  0  0
    2.1122   -2.6773    0.0000 S   0  0  0  0  0  0  0  0  0  0  0  0
    2.1122   -3.5023    0.0000 C   0  0  0  0  0  0  0  0  0  0  0  0
    0.6832   -2.6773    0.0000 C   0  0  0  0  0  0  0  0  0  0  0  0
    0.6832   -3.5023    0.0000 O   0  0  0  0  0  0  0  0  0  0  0  0
   -0.0312   -2.2648    0.0000 C   0  0  0  0  0  0  0  0  0  0  0  0
   -0.7457   -2.6773    0.0000 O   0  0  0  0  0  0  0  0  0  0  0  0
   -0.0312   -1.4398    0.0000 C   0  0  0  0  0  0  0  0  0  0  0  0
   -0.7457   -1.0273    0.0000 O   0  0  0  0  0  0  0  0  0  0  0  0
    1.3977    0.2102    0.0000 C   0  0  0  0  0  0  0  0  0  0  0  0
    1.3977    1.0352    0.0000 O   0  0  0  0  0  0  0  0  0  0  0  0
    2.1122   -0.2023    0.0000 C   0  0  0  0  0  0  0  0  0  0  0  0
   -1.9745    3.1934    0.0000 C   0  0  0  0  0  0  0  0  0  0  0  0
   -1.4895    3.8608    0.0000 C   0  0  0  0  0  0  0  0  0  0  0  0
   -1.8251    4.6145    0.0000 C   0  0  0  0  0  0  0  0  0  0  0  0
    5.2943    0.0000    0.0000 H   0  3  0  0  0  0  0  0  0  0  0  0
    4.4693    0.0000    0.0000 Cl  0  5  0  0  0  0  0  0  0  0  0  0
  1  2  1  0  0  0  0
  2  3  1  0  0  0  0
  3  4  1  0  0  0  0
  4  5  1  0  0  0  0
  1  5  1  0  0  0  0
  4  6  1  0  0  0  0
  3  7  1  0  0  0  0
  7  8  2  0  0  0  0
  7  9  1  0  0  0  0
  9 10  1  0  0  0  0
 10 11  1  0  0  0  0
 11 12  1  0  0  0  0
 12 13  1  0  0  0  0
 13 14  1  0  0  0  0
 14 15  1  0  0  0  0
 13 16  1  0  0  0  0
 16 17  1  0  0  0  0
 16 18  1  0  0  0  0
 18 19  1  0  0  0  0
 18 20  1  0  0  0  0
 11 20  1  0  0  0  0
 20 21  1  0  0  0  0
 10 22  1  0  0  0  0
 22 23  1  0  0  0  0
 22 24  1  0  0  0  0
  1 25  1  0  0  0  0
 25 26  1  0  0  0  0
 26 27  1  0  0  0  0
M  CHG  2  28   1  29  -1
M  END
>  <Name>
Lincomycin HCl

>  <CAS>
859-18-7

>  <Formula>
C18H34N2O6S.HCl

>  <MolWt>
443.00 

>  <Bioactivity>
Lincomycin  hydrochloride(Lincocin) is the monohydrated salt of lincomycin, a substance produced by the growth of a member of the lincolnensis group of Streptomyces lincolnensis.Lincomycin is an antibiotic used to treat a wide variety of bacterial infections. It has been structurally modified by thionyl chloride to its more commonly known 7-chloro-7-deoxy derivative, clindamycin.

>  <Pathways>
Microbiology & Virology

>  <Target>
Antibiotic

>  <Receptor>
50S ribosomal protein

>  <Reference>
1. Odom OW, Hardesty B. J Biol Chem. 1992 Sep 25;267(27):19117-22. 

$$$$
58947-95-8
  Mrv1561503291623562D          

 24 24  0  0  0  0            999 V2000
    0.4125    0.0000    0.0000 H   0  3  0  0  0  0  0  0  0  0  0  0
    4.5302   -1.0523    0.0000 C   0  0  0  0  0  0  0  0  0  0  0  0
    5.2446   -0.6398    0.0000 C   0  0  0  0  0  0  0  0  0  0  0  0
    5.2446    0.1852    0.0000 C   0  0  0  0  0  0  0  0  0  0  0  0
    5.2446    1.0102    0.0000 O   0  0  0  0  0  0  0  0  0  0  0  0
    4.4196    0.1852    0.0000 C   0  0  0  0  0  0  0  0  0  0  0  0
    4.0071   -0.5293    0.0000 C   0  0  0  0  0  0  0  0  0  0  0  0
    3.1821   -0.5293    0.0000 C   0  0  0  0  0  0  0  0  0  0  0  0
    2.7696    0.1852    0.0000 C   0  0  0  0  0  0  0  0  0  0  0  0
    3.1821    0.8996    0.0000 C   0  0  0  0  0  0  0  0  0  0  0  0
    4.0071    0.8996    0.0000 C   0  0  0  0  0  0  0  0  0  0  0  0
    6.0696    0.1852    0.0000 C   0  0  0  0  0  0  0  0  0  0  0  0
    6.4821    0.8996    0.0000 C   0  0  0  0  0  0  0  0  0  0  0  0
    7.3071    0.8996    0.0000 N   0  0  0  0  0  0  0  0  0  0  0  0
    7.7196    1.6141    0.0000 C   0  0  0  0  0  0  0  0  0  0  0  0
    8.5446    1.6141    0.0000 C   0  0  0  0  0  0  0  0  0  0  0  0
    8.9571    0.8996    0.0000 C   0  0  0  0  0  0  0  0  0  0  0  0
    8.5446    0.1852    0.0000 C   0  0  0  0  0  0  0  0  0  0  0  0
    7.7196    0.1852    0.0000 C   0  0  0  0  0  0  0  0  0  0  0  0
    5.9591   -1.0523    0.0000 C   0  0  0  0  0  0  0  0  0  0  0  0
    5.9591   -1.8773    0.0000 C   0  0  0  0  0  0  0  0  0  0  0  0
    5.2446   -2.2898    0.0000 C   0  0  0  0  0  0  0  0  0  0  0  0
    4.5302   -1.8773    0.0000 C   0  0  0  0  0  0  0  0  0  0  0  0
   -0.4125    0.0000    0.0000 Cl  0  5  0  0  0  0  0  0  0  0  0  0
  2  3  2  0  0  0  0
  3  4  1  0  0  0  0
  4  5  1  0  0  0  0
  4  6  1  0  0  0  0
  6  7  1  0  0  0  0
  7  8  1  0  0  0  0
  8  9  1  0  0  0  0
  9 10  1  0  0  0  0
 10 11  1  0  0  0  0
  6 11  1  0  0  0  0
  4 12  1  0  0  0  0
 12 13  1  0  0  0  0
 13 14  1  0  0  0  0
 14 15  1  0  0  0  0
 15 16  1  0  0  0  0
 16 17  1  0  0  0  0
 17 18  1  0  0  0  0
 18 19  1  0  0  0  0
 14 19  1  0  0  0  0
  3 20  1  0  0  0  0
 20 21  2  0  0  0  0
 21 22  1  0  0  0  0
 22 23  2  0  0  0  0
  2 23  1  0  0  0  0
M  CHG  2   1   1  24  -1
M  END
>  <Name>
DL-trihexyphenidyl HCl

>  <CAS>
58947-95-8

>  <Formula>
C20H32ClNO

>  <MolWt>
337.93 

>  <Bioactivity>
One of the centrally acting MUSCARINIC ANTAGONISTS used for treatment of PARKINSONIAN DISORDERS and drug-induced extrapyramidal movement disorders and as an antispasmodic. 

>  <Pathways>
Neuroscience

>  <Target>
AChR antagonist

>  <Receptor>
Muscarinic AChR

>  <Reference>
1. Bognar IT, et al. Naunyn Schmiedebergs Arch Pharmacol. 1992 Jun;345(6):611-8. 

$$$$
132-17-2
  Mrv1561503291623562D          

 28 30  0  0  1  0            999 V2000
   -1.7767   -1.6924    0.0000 C   0  0  1  0  0  0  0  0  0  0  0  0
   -1.5449   -0.7655    0.0000 N   0  0  0  0  0  0  0  0  0  0  0  0
   -1.7767    0.1614    0.0000 C   0  0  1  0  0  0  0  0  0  0  0  0
   -0.9723   -0.0222    0.0000 C   0  0  0  0  0  0  0  0  0  0  0  0
   -0.6144   -0.7655    0.0000 C   0  0  0  0  0  0  0  0  0  0  0  0
    0.2106   -0.7655    0.0000 O   0  0  0  0  0  0  0  0  0  0  0  0
    0.6231   -0.0510    0.0000 C   0  0  0  0  0  0  0  0  0  0  0  0
    0.2106    0.6634    0.0000 C   0  0  0  0  0  0  0  0  0  0  0  0
   -0.6144    0.6634    0.0000 C   0  0  0  0  0  0  0  0  0  0  0  0
   -1.0269    1.3779    0.0000 C   0  0  0  0  0  0  0  0  0  0  0  0
   -0.6144    2.0924    0.0000 C   0  0  0  0  0  0  0  0  0  0  0  0
    0.2106    2.0924    0.0000 C   0  0  0  0  0  0  0  0  0  0  0  0
    0.6231    1.3779    0.0000 C   0  0  0  0  0  0  0  0  0  0  0  0
    1.4481   -0.0510    0.0000 C   0  0  0  0  0  0  0  0  0  0  0  0
    1.8606    0.6634    0.0000 C   0  0  0  0  0  0  0  0  0  0  0  0
    2.6856    0.6634    0.0000 C   0  0  0  0  0  0  0  0  0  0  0  0
    3.0981   -0.0510    0.0000 C   0  0  0  0  0  0  0  0  0  0  0  0
    2.6856   -0.7655    0.0000 C   0  0  0  0  0  0  0  0  0  0  0  0
    1.8606   -0.7655    0.0000 C   0  0  0  0  0  0  0  0  0  0  0  0
   -0.9723   -1.5088    0.0000 C   0  0  0  0  0  0  0  0  0  0  0  0
   -2.4217   -0.3530    0.0000 C   0  0  0  0  0  0  0  0  0  0  0  0
   -2.4217   -1.1780    0.0000 C   0  0  0  0  0  0  0  0  0  0  0  0
   -0.7603   -1.0205    0.0000 C   0  0  0  0  0  0  0  0  0  0  0  0
    5.8088   -0.8250    0.0000 C   0  0  0  0  0  0  0  0  0  0  0  0
    5.8088    0.0000    0.0000 S   0  0  0  0  0  0  0  0  0  0  0  0
    5.8088    0.8250    0.0000 O   0  0  0  0  0  0  0  0  0  0  0  0
    6.6338   -0.0000    0.0000 O   0  0  0  0  0  0  0  0  0  0  0  0
    4.9838    0.0000    0.0000 O   0  0  0  0  0  0  0  0  0  0  0  0
  1  2  1  6  0  0  0
  3  2  1  1  0  0  0
  3  4  1  0  0  0  0
  4  5  1  0  0  0  0
  5  6  1  0  0  0  0
  6  7  1  0  0  0  0
  7  8  1  0  0  0  0
  8  9  2  0  0  0  0
  9 10  1  0  0  0  0
 10 11  2  0  0  0  0
 11 12  1  0  0  0  0
 12 13  2  0  0  0  0
  8 13  1  0  0  0  0
  7 14  1  0  0  0  0
 14 15  2  0  0  0  0
 15 16  1  0  0  0  0
 16 17  2  0  0  0  0
 17 18  1  0  0  0  0
 18 19  2  0  0  0  0
 14 19  1  0  0  0  0
  5 20  1  0  0  0  0
  1 20  1  0  0  0  0
  3 21  1  0  0  0  0
 21 22  1  0  0  0  0
  1 22  1  0  0  0  0
  2 23  1  0  0  0  0
 24 25  1  0  0  0  0
 25 26  2  0  0  0  0
 25 27  2  0  0  0  0
 25 28  1  0  0  0  0
M  END
>  <Name>
Benztropine mesylate

>  <CAS>
132-17-2

>  <Formula>
C21H25NO.CH4SO3

>  <MolWt>
403.53 

>  <Bioactivity>
Benzatropine is an anticholinergic drug used in patients to reduce the side effects of antipsychotic treatment. Benzatropine is also a second-line drug for the treatment of Parkinson's disease. It improves tremor, but not rigidity and bradykinesia. 

>  <Pathways>
Neuroscience

>  <Target>
Dopamine Receptor antagonist

>  <Receptor>
Dopamine transporter

>  <Reference>
1. Simoni D, et al. J Med Chem, 2005, 48(9), 3337-3343.

$$$$
78246-49-8
  Mrv1561503291623562D          

 26 27  0  0  1  0            999 V2000
    1.3686   -1.0484    0.0000 C   0  0  0  0  0  0  0  0  0  0  0  0
    1.3686   -0.2234    0.0000 C   0  0  0  0  0  0  0  0  0  0  0  0
    0.6541    0.1891    0.0000 C   0  0  0  0  0  0  0  0  0  0  0  0
    0.6541    1.0141    0.0000 O   0  0  0  0  0  0  0  0  0  0  0  0
   -0.0603    1.4266    0.0000 C   0  0  0  0  0  0  0  0  0  0  0  0
   -0.7748    1.0141    0.0000 C   0  0  0  0  0  0  0  0  0  0  0  0
   -1.4893    1.4266    0.0000 C   0  0  0  0  0  0  0  0  0  0  0  0
   -1.4893    2.2516    0.0000 C   0  0  0  0  0  0  0  0  0  0  0  0
   -2.2739    2.5065    0.0000 O   0  0  0  0  0  0  0  0  0  0  0  0
   -2.7588    1.8391    0.0000 C   0  0  0  0  0  0  0  0  0  0  0  0
   -2.2739    1.1716    0.0000 O   0  0  0  0  0  0  0  0  0  0  0  0
   -0.7748    2.6641    0.0000 C   0  0  0  0  0  0  0  0  0  0  0  0
   -0.0603    2.2516    0.0000 C   0  0  0  0  0  0  0  0  0  0  0  0
    2.0831    0.1891    0.0000 C   0  0  0  0  0  0  0  0  0  0  0  0
    2.7975   -0.2234    0.0000 N   0  0  0  0  0  0  0  0  0  0  0  0
    2.7975   -1.0484    0.0000 C   0  0  0  0  0  0  0  0  0  0  0  0
    2.0831   -1.4609    0.0000 C   0  0  0  0  0  0  0  0  0  0  0  0
    0.6541   -1.4609    0.0000 C   0  0  0  0  0  0  0  0  0  0  0  0
    0.6541   -2.2859    0.0000 C   0  0  0  0  0  0  0  0  0  0  0  0
   -0.0603   -2.6984    0.0000 C   0  0  0  0  0  0  0  0  0  0  0  0
   -0.7748   -2.2859    0.0000 C   0  0  0  0  0  0  0  0  0  0  0  0
   -1.4893   -2.6984    0.0000 F   0  0  0  0  0  0  0  0  0  0  0  0
   -0.7748   -1.4609    0.0000 C   0  0  0  0  0  0  0  0  0  0  0  0
   -0.0603   -1.0484    0.0000 C   0  0  0  0  0  0  0  0  0  0  0  0
    5.9797    0.0000    0.0000 H   0  3  0  0  0  0  0  0  0  0  0  0
    5.1547    0.0000    0.0000 Cl  0  5  0  0  0  0  0  0  0  0  0  0
  1  2  1  0  0  0  0
  2  3  1  0  0  0  0
  3  4  1  0  0  0  0
  4  5  1  0  0  0  0
  5  6  2  0  0  0  0
  6  7  1  0  0  0  0
  7  8  2  0  0  0  0
  8  9  1  0  0  0  0
  9 10  1  0  0  0  0
 10 11  1  0  0  0  0
  7 11  1  0  0  0  0
  8 12  1  0  0  0  0
 12 13  2  0  0  0  0
  5 13  1  0  0  0  0
  2 14  1  0  0  0  0
 14 15  1  0  0  0  0
 15 16  1  0  0  0  0
 16 17  1  0  0  0  0
  1 17  1  0  0  0  0
  1 18  1  0  0  0  0
 18 19  2  0  0  0  0
 19 20  1  0  0  0  0
 20 21  2  0  0  0  0
 21 22  1  0  0  0  0
 21 23  1  0  0  0  0
 23 24  2  0  0  0  0
 18 24  1  0  0  0  0
M  CHG  2  25   1  26  -1
M  END
>  <Name>
Paroxetine HCl

>  <CAS>
78246-49-8

>  <Formula>
C19H21CIFNO3

>  <MolWt>
365.83 

>  <Bioactivity>
Paroxetine Hydrochloride is a antidepressant agents known as selective serotonin-reuptake inhibitors (SSRIs).Paroxetine is a potent and highly selective inhibitor of neuronal serotonin reuptake. Paroxetine likely inhibits the reuptake of serotonin at the

>  <Pathways>
Neuroscience

>  <Target>
5-HT Receptor antagonist;AChR antagonist

>  <Receptor>
5-HT receptor;Musciarinic AChR

>  <Reference>
1. Le Poul E, et al. Naunyn Schmiedebergs Arch Pharmacol, 1995, 352(2), 141-148.

$$$$
T1087
  Mrv1561503291623562D          

 25 24  0  0  1  0            999 V2000
    3.6067    0.2283    0.0000 C   0  0  0  0  0  0  0  0  0  0  0  0
    3.6067    1.0533    0.0000 N   0  0  0  0  0  0  0  0  0  0  0  0
    2.8922   -0.1842    0.0000 C   0  0  0  0  0  0  0  0  0  0  0  0
    2.1777    0.2283    0.0000 O   0  0  0  0  0  0  0  0  0  0  0  0
    1.4633   -0.1842    0.0000 C   0  0  0  0  0  0  0  0  0  0  0  0
    0.7488    0.2283    0.0000 C   0  0  0  0  0  0  0  0  0  0  0  0
    0.0343   -0.1842    0.0000 O   0  0  0  0  0  0  0  0  0  0  0  0
   -0.6802    0.2283    0.0000 C   0  0  0  0  0  0  0  0  0  0  0  0
   -1.3946   -0.1842    0.0000 N   0  0  0  0  0  0  0  0  0  0  0  0
   -2.1483    0.1513    0.0000 C   0  0  0  0  0  0  0  0  0  0  0  0
   -2.7003   -0.4618    0.0000 C   0  0  0  0  0  0  0  0  0  0  0  0
   -2.2878   -1.1762    0.0000 N   0  0  0  0  0  0  0  0  0  0  0  0
   -1.4809   -1.0047    0.0000 C   0  0  0  0  0  0  0  0  0  0  0  0
   -3.5073   -0.2902    0.0000 C   0  0  0  0  0  0  0  0  0  0  0  0
   -4.0593   -0.9033    0.0000 O   0  0  0  0  0  0  0  0  0  0  0  0
   -3.7622    0.4944    0.0000 N   0  0  0  0  0  0  0  0  0  0  0  0
   -3.2102    1.1075    0.0000 C   0  0  0  0  0  0  0  0  0  0  0  0
   -2.4032    0.9360    0.0000 N   0  0  0  0  0  0  0  0  0  0  0  0
   -3.4652    1.8921    0.0000 N   0  0  0  0  0  0  0  0  0  0  0  0
    2.8922   -1.0092    0.0000 O   0  0  0  0  0  0  0  0  0  0  0  0
    4.3211   -0.1842    0.0000 C   0  0  0  0  0  0  0  0  0  0  0  0
    5.0356    0.2283    0.0000 C   0  0  0  0  0  0  0  0  0  0  0  0
    4.3211   -1.0092    0.0000 C   0  0  0  0  0  0  0  0  0  0  0  0
    8.2178    0.0000    0.0000 H   0  3  0  0  0  0  0  0  0  0  0  0
    7.3928    0.0000    0.0000 Cl  0  5  0  0  0  0  0  0  0  0  0  0
  1  2  1  0  0  0  0
  1  3  1  0  0  0  0
  3  4  1  0  0  0  0
  4  5  1  0  0  0  0
  5  6  1  0  0  0  0
  6  7  1  0  0  0  0
  7  8  1  0  0  0  0
  8  9  1  0  0  0  0
  9 10  1  0  0  0  0
 10 11  2  0  0  0  0
 11 12  1  0  0  0  0
 12 13  2  0  0  0  0
  9 13  1  0  0  0  0
 11 14  1  0  0  0  0
 14 15  2  0  0  0  0
 14 16  1  0  0  0  0
 16 17  2  0  0  0  0
 17 18  1  0  0  0  0
 10 18  1  0  0  0  0
 17 19  1  0  0  0  0
  3 20  2  0  0  0  0
  1 21  1  0  0  0  0
 21 22  1  0  0  0  0
 21 23  1  0  0  0  0
M  CHG  2  24   1  25  -1
M  END
>  <Name>
Valacyclovir HCl

>  <CAS>
124832-27-5

>  <Formula>
C13H20N6O4.HCl.XH2O

>  <MolWt>
360.80 

>  <Bioactivity>
Valaciclovir HCl is an antiviral drug used in the management of herpes simplex, herpes zoster, and herpes B.

>  <Pathways>
Microbiology & Virology

>  <Target>
Antibiotic

>  <Receptor>
DNA polymerase

>  <Reference>
1. Teh BS, et al. Int J Radiat Oncol Biol Phys. 2004 Apr 1;58(5):1520-9.

$$$$
964-52-3
  Mrv1561503291623562D          

 22 20  0  0  0  0            999 V2000
    0.4125    0.0000    0.0000 H   0  3  0  0  0  0  0  0  0  0  0  0
    4.3238   -0.5362    0.0000 C   0  0  0  0  0  0  0  0  0  0  0  0
    3.6093   -0.1238    0.0000 C   0  0  0  0  0  0  0  0  0  0  0  0
    2.8948   -0.5363    0.0000 O   0  0  0  0  0  0  0  0  0  0  0  0
    2.8948   -1.3613    0.0000 C   0  0  0  0  0  0  0  0  0  0  0  0
    2.1804   -1.7738    0.0000 O   0  0  0  0  0  0  0  0  0  0  0  0
    3.6093   -1.7738    0.0000 C   0  0  0  0  0  0  0  0  0  0  0  0
    3.6093    0.7012    0.0000 C   0  0  0  0  0  0  0  0  0  0  0  0
    4.3238    1.1138    0.0000 C   0  0  0  0  0  0  0  0  0  0  0  0
    5.0382    0.7013    0.0000 C   0  0  0  0  0  0  0  0  0  0  0  0
    5.0382   -0.1237    0.0000 C   0  0  0  0  0  0  0  0  0  0  0  0
    5.7527   -0.5362    0.0000 C   0  0  0  0  0  0  0  0  0  0  0  0
    5.7527   -1.3612    0.0000 C   0  0  0  0  0  0  0  0  0  0  0  0
    6.4672   -0.1237    0.0000 C   0  0  0  0  0  0  0  0  0  0  0  0
    5.7527    1.1138    0.0000 O   0  0  0  0  0  0  0  0  0  0  0  0
    6.4672    0.7013    0.0000 C   0  0  0  0  0  0  0  0  0  0  0  0
    7.1817    1.1138    0.0000 C   0  0  0  0  0  0  0  0  0  0  0  0
    7.8961    0.7013    0.0000 N   0  0  0  0  0  0  0  0  0  0  0  0
    8.6106    1.1138    0.0000 C   0  0  0  0  0  0  0  0  0  0  0  0
    7.8961   -0.1237    0.0000 C   0  0  0  0  0  0  0  0  0  0  0  0
    2.8948    1.1137    0.0000 C   0  0  0  0  0  0  0  0  0  0  0  0
   -0.4125    0.0000    0.0000 Cl  0  5  0  0  0  0  0  0  0  0  0  0
  2  3  2  0  0  0  0
  3  4  1  0  0  0  0
  4  5  1  0  0  0  0
  5  6  2  0  0  0  0
  5  7  1  0  0  0  0
  3  8  1  0  0  0  0
  8  9  2  0  0  0  0
  9 10  1  0  0  0  0
 10 11  2  0  0  0  0
  2 11  1  0  0  0  0
 11 12  1  0  0  0  0
 12 13  1  0  0  0  0
 12 14  1  0  0  0  0
 10 15  1  0  0  0  0
 15 16  1  0  0  0  0
 16 17  1  0  0  0  0
 17 18  1  0  0  0  0
 18 19  1  0  0  0  0
 18 20  1  0  0  0  0
  8 21  1  0  0  0  0
M  CHG  2   1   1  22  -1
M  END
>  <Name>
Moxisylyte HCl

>  <CAS>
964-52-3

>  <Formula>
C16H26ClNO3

>  <MolWt>
315.84 

>  <Bioactivity>
An alpha-adrenergic blocking agent that is used in Raynaud's disease. It is also used locally in the eye to reverse the mydriasis caused by phenylephrine and other sympathomimetic agents. (From Martindale, The Extra Pharmacopoeia, 30th ed, p1312) 

>  <Pathways>
GPCR/G Protein

>  <Target>
Adrenergic Receptor antagonist

>  <Receptor>
Adrenergic Receptor

>  <Reference>
1. Imagawa A, et al. Life Sci. 1989;44(9):619-23.

$$$$
84-02-6
  Mrv1561503291623562D          

 41 42  0  0  0  0            999 V2000
    0.6002   -0.5445    0.0000 C   0  0  0  0  0  0  0  0  0  0  0  0
    1.3146   -0.9570    0.0000 C   0  0  0  0  0  0  0  0  0  0  0  0
    2.0291   -0.5445    0.0000 Cl  0  0  0  0  0  0  0  0  0  0  0  0
    1.3146   -1.7820    0.0000 C   0  0  0  0  0  0  0  0  0  0  0  0
    0.6002   -2.1945    0.0000 C   0  0  0  0  0  0  0  0  0  0  0  0
   -0.1143   -1.7820    0.0000 C   0  0  0  0  0  0  0  0  0  0  0  0
   -0.1143   -0.9570    0.0000 C   0  0  0  0  0  0  0  0  0  0  0  0
   -0.8288   -0.5445    0.0000 N   0  0  0  0  0  0  0  0  0  0  0  0
   -1.5433   -0.9570    0.0000 C   0  0  0  0  0  0  0  0  0  0  0  0
   -1.5433   -1.7820    0.0000 C   0  0  0  0  0  0  0  0  0  0  0  0
   -0.8288   -2.1945    0.0000 S   0  0  0  0  0  0  0  0  0  0  0  0
   -2.2577   -2.1945    0.0000 C   0  0  0  0  0  0  0  0  0  0  0  0
   -2.9722   -1.7820    0.0000 C   0  0  0  0  0  0  0  0  0  0  0  0
   -2.9722   -0.9570    0.0000 C   0  0  0  0  0  0  0  0  0  0  0  0
   -2.2577   -0.5445    0.0000 C   0  0  0  0  0  0  0  0  0  0  0  0
   -0.8288    0.2805    0.0000 C   0  0  0  0  0  0  0  0  0  0  0  0
   -0.1143    0.6930    0.0000 C   0  0  0  0  0  0  0  0  0  0  0  0
   -0.1143    1.5180    0.0000 C   0  0  0  0  0  0  0  0  0  0  0  0
    0.6002    1.9305    0.0000 N   0  0  0  0  0  0  0  0  0  0  0  0
    0.6002    2.7555    0.0000 C   0  0  0  0  0  0  0  0  0  0  0  0
    1.3146    3.1680    0.0000 C   0  0  0  0  0  0  0  0  0  0  0  0
    2.0291    2.7555    0.0000 N   0  0  0  0  0  0  0  0  0  0  0  0
    2.0291    1.9305    0.0000 C   0  0  0  0  0  0  0  0  0  0  0  0
    1.3146    1.5180    0.0000 C   0  0  0  0  0  0  0  0  0  0  0  0
    2.7436    3.1680    0.0000 C   0  0  0  0  0  0  0  0  0  0  0  0
    7.9293   -0.0000    0.0000 O   0  0  0  0  0  0  0  0  0  0  0  0
    7.1043    0.0000    0.0000 C   0  0  0  0  0  0  0  0  0  0  0  0
    6.6918   -0.7145    0.0000 O   0  0  0  0  0  0  0  0  0  0  0  0
    6.6918    0.7145    0.0000 C   0  0  0  0  0  0  0  0  0  0  0  0
    5.8668    0.7145    0.0000 C   0  0  0  0  0  0  0  0  0  0  0  0
    5.4543    0.0000    0.0000 C   0  0  0  0  0  0  0  0  0  0  0  0
    5.8668   -0.7145    0.0000 O   0  0  0  0  0  0  0  0  0  0  0  0
    4.6293    0.0000    0.0000 O   0  0  0  0  0  0  0  0  0  0  0  0
    1.6500   -4.5590    0.0000 O   0  0  0  0  0  0  0  0  0  0  0  0
    0.8250   -4.5590    0.0000 C   0  0  0  0  0  0  0  0  0  0  0  0
    0.4125   -5.2734    0.0000 O   0  0  0  0  0  0  0  0  0  0  0  0
    0.4125   -3.8445    0.0000 C   0  0  0  0  0  0  0  0  0  0  0  0
   -0.4125   -3.8445    0.0000 C   0  0  0  0  0  0  0  0  0  0  0  0
   -0.8250   -4.5590    0.0000 C   0  0  0  0  0  0  0  0  0  0  0  0
   -0.4125   -5.2734    0.0000 O   0  0  0  0  0  0  0  0  0  0  0  0
   -1.6500   -4.5590    0.0000 O   0  0  0  0  0  0  0  0  0  0  0  0
  1  2  2  0  0  0  0
  2  3  1  0  0  0  0
  2  4  1  0  0  0  0
  4  5  2  0  0  0  0
  5  6  1  0  0  0  0
  6  7  2  0  0  0  0
  1  7  1  0  0  0  0
  7  8  1  0  0  0  0
  8  9  1  0  0  0  0
  9 10  2  0  0  0  0
 10 11  1  0  0  0  0
  6 11  1  0  0  0  0
 10 12  1  0  0  0  0
 12 13  2  0  0  0  0
 13 14  1  0  0  0  0
 14 15  2  0  0  0  0
  9 15  1  0  0  0  0
  8 16  1  0  0  0  0
 16 17  1  0  0  0  0
 17 18  1  0  0  0  0
 18 19  1  0  0  0  0
 19 20  1  0  0  0  0
 20 21  1  0  0  0  0
 21 22  1  0  0  0  0
 22 23  1  0  0  0  0
 23 24  1  0  0  0  0
 19 24  1  0  0  0  0
 22 25  1  0  0  0  0
 26 27  2  0  0  0  0
 27 28  1  0  0  0  0
 27 29  1  0  0  0  0
 29 30  2  0  0  0  0
 30 31  1  0  0  0  0
 31 32  2  0  0  0  0
 31 33  1  0  0  0  0
 34 35  2  0  0  0  0
 35 36  1  0  0  0  0
 35 37  1  0  0  0  0
 37 38  2  0  0  0  0
 38 39  1  0  0  0  0
 39 40  2  0  0  0  0
 39 41  1  0  0  0  0
M  END
>  <Name>
Prochlorperazine Maleate

>  <CAS>
84-02-6

>  <Formula>
C28H32ClN3O8S

>  <MolWt>
606.09 

>  <Bioactivity>
A phenothiazine antipsychotic used principally in the treatment of NAUSEA; VOMITING; and VERTIGO. It is more likely than CHLORPROMAZINE to cause EXTRAPYRAMIDAL DISORDERS. (From Martindale, The Extra Pharmacopoeia, 30th ed, p612) 

>  <Pathways>
Neuroscience

>  <Target>
Dopamine Receptor agonist

>  <Receptor>
D(2) dopamine receptor

>  <Reference>
1. Hamik A, Peroutka SJ. Cancer Chemother Pharmacol. 1989;24(5):307-10. 

$$$$
T1623
  Mrv1561503291623562D          

 46 49  0  0  1  0            999 V2000
    7.8213   -0.8399    0.0000 C   0  0  2  0  0  0  0  0  0  0  0  0
    8.4449   -0.2998    0.0000 N   0  0  0  0  0  0  0  0  0  0  0  0
    9.2245   -0.5698    0.0000 C   0  0  0  0  0  0  0  0  0  0  0  0
    9.8481   -0.0297    0.0000 N   0  0  0  0  0  0  0  0  0  0  0  0
    9.6922    0.7804    0.0000 C   0  0  0  0  0  0  0  0  0  0  0  0
    8.9126    1.0504    0.0000 C   0  0  0  0  0  0  0  0  0  0  0  0
    8.2890    0.5104    0.0000 C   0  0  0  0  0  0  0  0  0  0  0  0
    9.3804   -1.3800    0.0000 O   0  0  0  0  0  0  0  0  0  0  0  0
    7.0417   -0.5698    0.0000 C   0  0  0  0  0  0  0  0  0  0  0  0
    6.4181   -1.1099    0.0000 N   0  0  0  0  0  0  0  0  0  0  0  0
    5.6385   -0.8399    0.0000 C   0  0  1  0  0  0  0  0  0  0  0  0
    5.4826   -0.0297    0.0000 C   0  0  0  0  0  0  0  0  0  0  0  0
    4.7031    0.2403    0.0000 C   0  0  0  0  0  0  0  0  0  0  0  0
    4.0794   -0.2998    0.0000 C   0  0  0  0  0  0  0  0  0  0  0  0
    3.2999   -0.0297    0.0000 C   0  0  0  0  0  0  0  0  0  0  0  0
    3.1440    0.7804    0.0000 C   0  0  0  0  0  0  0  0  0  0  0  0
    3.7676    1.3205    0.0000 C   0  0  0  0  0  0  0  0  0  0  0  0
    4.5471    1.0504    0.0000 C   0  0  0  0  0  0  0  0  0  0  0  0
    5.0149   -1.3800    0.0000 C   0  0  0  0  0  0  0  0  0  0  0  0
    4.2353   -1.1099    0.0000 C   0  0  1  0  0  0  0  0  0  0  0  0
    3.6117   -1.6500    0.0000 C   0  0  2  0  0  0  0  0  0  0  0  0
    3.7676   -2.4601    0.0000 C   0  0  0  0  0  0  0  0  0  0  0  0
    4.5471   -2.7302    0.0000 C   0  0  0  0  0  0  0  0  0  0  0  0
    5.1708   -2.1901    0.0000 C   0  0  0  0  0  0  0  0  0  0  0  0
    5.9503   -2.4601    0.0000 C   0  0  0  0  0  0  0  0  0  0  0  0
    6.1063   -3.2703    0.0000 C   0  0  0  0  0  0  0  0  0  0  0  0
    5.4826   -3.8104    0.0000 C   0  0  0  0  0  0  0  0  0  0  0  0
    4.7031   -3.5403    0.0000 C   0  0  0  0  0  0  0  0  0  0  0  0
    2.8321   -1.3800    0.0000 N   0  0  0  0  0  0  0  0  0  0  0  0
    2.2085   -1.9200    0.0000 C   0  0  0  0  0  0  0  0  0  0  0  0
    1.4289   -1.6500    0.0000 C   0  0  0  0  0  0  0  0  0  0  0  0
    0.8053   -2.1901    0.0000 O   0  0  0  0  0  0  0  0  0  0  0  0
    0.0257   -1.9200    0.0000 C   0  0  0  0  0  0  0  0  0  0  0  0
   -0.5979   -2.4601    0.0000 C   0  0  0  0  0  0  0  0  0  0  0  0
   -1.3774   -2.1901    0.0000 C   0  0  0  0  0  0  0  0  0  0  0  0
   -1.5334   -1.3800    0.0000 C   0  0  0  0  0  0  0  0  0  0  0  0
   -0.9097   -0.8399    0.0000 C   0  0  0  0  0  0  0  0  0  0  0  0
   -0.1302   -1.1099    0.0000 C   0  0  0  0  0  0  0  0  0  0  0  0
    0.4935   -0.5698    0.0000 C   0  0  0  0  0  0  0  0  0  0  0  0
   -0.4420   -3.2703    0.0000 C   0  0  0  0  0  0  0  0  0  0  0  0
    2.3644   -2.7302    0.0000 O   0  0  0  0  0  0  0  0  0  0  0  0
    3.6330   -0.5461    0.0000 O   0  0  0  0  0  0  0  0  0  0  0  0
    6.8858    0.2403    0.0000 O   0  0  0  0  0  0  0  0  0  0  0  0
    7.9772   -1.6500    0.0000 C   0  0  0  0  0  0  0  0  0  0  0  0
    8.7567   -1.9200    0.0000 C   0  0  0  0  0  0  0  0  0  0  0  0
    7.3535   -2.1901    0.0000 C   0  0  0  0  0  0  0  0  0  0  0  0
  1  2  1  1  0  0  0
  2  3  1  0  0  0  0
  3  4  1  0  0  0  0
  4  5  1  0  0  0  0
  5  6  1  0  0  0  0
  6  7  1  0  0  0  0
  2  7  1  0  0  0  0
  3  8  2  0  0  0  0
  1  9  1  0  0  0  0
  9 10  1  0  0  0  0
 11 10  1  6  0  0  0
 11 12  1  0  0  0  0
 12 13  1  0  0  0  0
 13 14  2  0  0  0  0
 14 15  1  0  0  0  0
 15 16  2  0  0  0  0
 16 17  1  0  0  0  0
 17 18  2  0  0  0  0
 13 18  1  0  0  0  0
 11 19  1  0  0  0  0
 19 20  1  0  0  0  0
 20 21  1  0  0  0  0
 21 22  1  0  0  0  0
 22 23  1  0  0  0  0
 23 24  2  0  0  0  0
 24 25  1  0  0  0  0
 25 26  2  0  0  0  0
 26 27  1  0  0  0  0
 27 28  2  0  0  0  0
 23 28  1  0  0  0  0
 21 29  1  6  0  0  0
 29 30  1  0  0  0  0
 30 31  1  0  0  0  0
 31 32  1  0  0  0  0
 32 33  1  0  0  0  0
 33 34  2  0  0  0  0
 34 35  1  0  0  0  0
 35 36  2  0  0  0  0
 36 37  1  0  0  0  0
 37 38  2  0  0  0  0
 33 38  1  0  0  0  0
 38 39  1  0  0  0  0
 34 40  1  0  0  0  0
 30 41  2  0  0  0  0
 20 42  1  1  0  0  0
  9 43  2  0  0  0  0
  1 44  1  0  0  0  0
 44 45  1  0  0  0  0
 44 46  1  0  0  0  0
M  END
>  <Name>
Lopinavir

>  <CAS>
192725-17-0

>  <Formula>
C37H48N4O5

>  <MolWt>
628.80 

>  <Bioactivity>
Lopinavir (also known as ABT-378) is a highly potent inhibitor of human immunodeficiency virus (HIV) protease that potently inhibits wild-type and mutant HIV protease

>  <Pathways>
Proteases/Proteasome; Microbiology & Virology

>  <Target>
HIV Protease Inhibitor

>  <Receptor>
HIV Protease;MRP1

>  <Reference>
1. Garriga C, et al. J Med Virol. 2007 Nov; 79(11):1617-28.

$$$$
23979-41-1
  Mrv1561503291623562D          

 17 18  0  0  0  0            999 V2000
    1.4289   -1.6500    0.0000 C   0  0  0  0  0  0  0  0  0  0  0  0
    0.7145   -1.2375    0.0000 C   0  0  0  0  0  0  0  0  0  0  0  0
    0.7145   -0.4125    0.0000 C   0  0  0  0  0  0  0  0  0  0  0  0
    1.4289   -0.0000    0.0000 C   0  0  0  0  0  0  0  0  0  0  0  0
    2.1434   -0.4125    0.0000 C   0  0  0  0  0  0  0  0  0  0  0  0
    2.8579   -0.0000    0.0000 C   0  0  0  0  0  0  0  0  0  0  0  0
    3.5724   -0.4125    0.0000 C   0  0  0  0  0  0  0  0  0  0  0  0
    3.5724   -1.2375    0.0000 C   0  0  0  0  0  0  0  0  0  0  0  0
    2.8579   -1.6500    0.0000 C   0  0  0  0  0  0  0  0  0  0  0  0
    2.1434   -1.2375    0.0000 C   0  0  0  0  0  0  0  0  0  0  0  0
    2.8579   -2.4750    0.0000 C   0  0  0  0  0  0  0  0  0  0  0  0
    3.5724   -2.8875    0.0000 C   0  0  0  0  0  0  0  0  0  0  0  0
    3.5724   -3.7125    0.0000 O   0  0  0  0  0  0  0  0  0  0  0  0
    4.2868   -2.4750    0.0000 O   0  0  0  0  0  0  0  0  0  0  0  0
    2.1434   -2.8875    0.0000 C   0  0  0  0  0  0  0  0  0  0  0  0
   -0.0000   -0.0000    0.0000 O   0  0  0  0  0  0  0  0  0  0  0  0
   -0.7145   -0.4125    0.0000 C   0  0  0  0  0  0  0  0  0  0  0  0
  1  2  2  0  0  0  0
  2  3  1  0  0  0  0
  3  4  2  0  0  0  0
  4  5  1  0  0  0  0
  5  6  2  0  0  0  0
  6  7  1  0  0  0  0
  7  8  2  0  0  0  0
  8  9  1  0  0  0  0
  9 10  2  0  0  0  0
  1 10  1  0  0  0  0
  5 10  1  0  0  0  0
  9 11  1  0  0  0  0
 11 12  1  0  0  0  0
 12 13  2  0  0  0  0
 12 14  1  0  0  0  0
 11 15  1  0  0  0  0
  3 16  1  0  0  0  0
 16 17  1  0  0  0  0
M  END
>  <Name>
(R)-Naproxen

>  <CAS>
23979-41-1

>  <Formula>
C14H14O3

>  <MolWt>
230.26 

>  <Bioactivity>
An anti-inflammatory agent with analgesic and antipyretic properties. Both the acid and its sodium salt are used in the treatment of rheumatoid arthritis and other rheumatic or musculoskeletal disorders, dysmenorrhea, and acute gout. 

>  <Pathways>
Neuroscience

>  <Target>
COX inhibitor

>  <Receptor>
Prostaglandin G/H synthase

>  <Reference>
1. Albertini R, et al. Inflamm Res. 2007, 56(6):228-9. 

$$$$
41100-52-1
  Mrv1561503291623562D          

 15 15  0  0  0  0            999 V2000
    0.4125    0.0000    0.0000 H   0  3  0  0  0  0  0  0  0  0  0  0
    3.8533   -1.3563    0.0000 C   0  0  0  0  0  0  0  0  0  0  0  0
    3.8532   -0.5313    0.0000 C   0  0  0  0  0  0  0  0  0  0  0  0
    3.1178   -0.9050    0.0000 C   0  0  0  0  0  0  0  0  0  0  0  0
    3.5672   -0.1147    0.0000 C   0  0  0  0  0  0  0  0  0  0  0  0
    2.7696    0.0962    0.0000 N   0  0  0  0  0  0  0  0  0  0  0  0
    3.5672    0.6327    0.0000 C   0  0  0  0  0  0  0  0  0  0  0  0
    4.3027    1.0064    0.0000 C   0  0  0  0  0  0  0  0  0  0  0  0
    3.8532    0.2161    0.0000 C   0  0  0  0  0  0  0  0  0  0  0  0
    5.0383    0.6327    0.0000 C   0  0  0  0  0  0  0  0  0  0  0  0
    5.0383   -0.1147    0.0000 C   0  0  0  0  0  0  0  0  0  0  0  0
    4.3027   -0.4884    0.0000 C   0  0  0  0  0  0  0  0  0  0  0  0
    4.5888   -0.9050    0.0000 C   0  0  0  0  0  0  0  0  0  0  0  0
    4.3027    1.8314    0.0000 C   0  0  0  0  0  0  0  0  0  0  0  0
   -0.4125    0.0000    0.0000 Cl  0  5  0  0  0  0  0  0  0  0  0  0
  2  3  1  0  0  0  0
  3  4  1  0  0  0  0
  4  5  1  0  0  0  0
  5  6  1  0  0  0  0
  5  7  1  0  0  0  0
  7  8  1  0  0  0  0
  8  9  1  0  0  0  0
  3  9  1  0  0  0  0
  8 10  1  0  0  0  0
 11 13  1  0  0  0  0
 11 12  1  0  0  0  0
  5 12  1  0  0  0  0
 10 11  1  0  0  0  0
  3 13  1  0  0  0  0
  8 14  1  0  0  0  0
M  CHG  2   1   1  15  -1
M  END
>  <Name>
Memantine HCl

>  <CAS>
41100-52-1

>  <Formula>
C12H22ClN

>  <MolWt>
215.76 

>  <Bioactivity>
Memantine is an uncompetitive NMDA receptor antagonist. When using HEK293 cells express recombinant rat NMDA receptors, memantine shows inhibition of L-glutamate-mediated response with a dose- and voltage-dependent manner. Memantine also has a rapid unblocking kinetics. Memantine is used clinically in spasticity, Parkinson's disease and Alzheimer's disease. Memantine is found to attenuate the deleterious action of A? in the in vitro numerous studies. It is probably due to the decreased tau phosphorylation caused by memantine

>  <Pathways>
Neuroscience

>  <Target>
AMPAR inhibitor; NMDAR inhibitor

>  <Receptor>
AMPA receptor, Kainate receptor, NMDA receptor

>  <Reference>
1. Bresink I, et al. British journal of pharmacology, 1996, 119(2): 195-204.

$$$$
138112-76-2
  Mrv1561503291623562D          

 18 19  0  0  0  0            999 V2000
    0.7145   -1.2375    0.0000 C   0  0  0  0  0  0  0  0  0  0  0  0
    0.7145   -0.4125    0.0000 C   0  0  0  0  0  0  0  0  0  0  0  0
   -0.0000   -0.0000    0.0000 C   0  0  0  0  0  0  0  0  0  0  0  0
   -0.7145   -0.4125    0.0000 C   0  0  0  0  0  0  0  0  0  0  0  0
   -0.7145   -1.2375    0.0000 C   0  0  0  0  0  0  0  0  0  0  0  0
    0.0000   -1.6500    0.0000 C   0  0  0  0  0  0  0  0  0  0  0  0
    0.0000   -2.4750    0.0000 O   0  0  0  0  0  0  0  0  0  0  0  0
   -0.7145   -2.8875    0.0000 C   0  0  0  0  0  0  0  0  0  0  0  0
   -0.0000    0.8250    0.0000 C   0  0  0  0  0  0  0  0  0  0  0  0
    0.7145    1.2375    0.0000 C   0  0  0  0  0  0  0  0  0  0  0  0
    1.4289    0.8250    0.0000 C   0  0  0  0  0  0  0  0  0  0  0  0
    1.4289   -0.0000    0.0000 C   0  0  0  0  0  0  0  0  0  0  0  0
    2.1434   -0.4125    0.0000 C   0  0  0  0  0  0  0  0  0  0  0  0
    2.1434   -1.2375    0.0000 C   0  0  0  0  0  0  0  0  0  0  0  0
    2.8579   -1.6500    0.0000 N   0  0  0  0  0  0  0  0  0  0  0  0
    3.5724   -1.2375    0.0000 C   0  0  0  0  0  0  0  0  0  0  0  0
    3.5724   -0.4125    0.0000 C   0  0  0  0  0  0  0  0  0  0  0  0
    4.2868   -1.6500    0.0000 O   0  0  0  0  0  0  0  0  0  0  0  0
  1  2  2  0  0  0  0
  2  3  1  0  0  0  0
  3  4  2  0  0  0  0
  4  5  1  0  0  0  0
  5  6  2  0  0  0  0
  1  6  1  0  0  0  0
  6  7  1  0  0  0  0
  7  8  1  0  0  0  0
  3  9  1  0  0  0  0
  9 10  2  0  0  0  0
 10 11  1  0  0  0  0
 11 12  2  0  0  0  0
  2 12  1  0  0  0  0
 12 13  1  0  0  0  0
 13 14  1  0  0  0  0
 14 15  1  0  0  0  0
 15 16  1  0  0  0  0
 16 17  1  0  0  0  0
 16 18  2  0  0  0  0
M  END
>  <Name>
Agomelatine

>  <CAS>
138112-76-2

>  <Formula>
C15H17NO2

>  <MolWt>
243.30 

>  <Bioactivity>
Agomelatine is structurally closely related to melatonin. Agomelatine is a potent agonist at melatonin receptors and an antagonist at serotonin-2C (5-HT2C) receptors, tested in an animal model of depression. Agomelatine was discovered and developed by the European pharmaceutical company Servier Laboratories Ltd. Servier continue to develop the drug and conduct phase III trials in the European Union.

>  <Pathways>
Neuroscience

>  <Target>
5-HT Receptor antagonist

>  <Receptor>
5-HT Receptor

>  <Reference>
1. Millan MJ, et al. Psychopharmacology (Berl). 2005, 177(4):448-58. 

$$$$
134-80-5
  Mrv1561503291623562D          

 17 15  0  0  0  0            999 V2000
    0.4125    0.0000    0.0000 H   0  3  0  0  0  0  0  0  0  0  0  0
    3.0127   -0.2200    0.0000 C   0  0  0  0  0  0  0  0  0  0  0  0
    3.7272   -0.6325    0.0000 C   0  0  0  0  0  0  0  0  0  0  0  0
    4.4416   -0.2200    0.0000 C   0  0  0  0  0  0  0  0  0  0  0  0
    5.1561   -0.6325    0.0000 O   0  0  0  0  0  0  0  0  0  0  0  0
    4.4416    0.6050    0.0000 C   0  0  0  0  0  0  0  0  0  0  0  0
    5.1561    1.0175    0.0000 N   0  0  0  0  0  0  0  0  0  0  0  0
    5.1561    1.8425    0.0000 C   0  0  0  0  0  0  0  0  0  0  0  0
    5.8706    2.2550    0.0000 C   0  0  0  0  0  0  0  0  0  0  0  0
    5.8706    0.6050    0.0000 C   0  0  0  0  0  0  0  0  0  0  0  0
    5.8706   -0.2200    0.0000 C   0  0  0  0  0  0  0  0  0  0  0  0
    3.7272    1.0175    0.0000 C   0  0  0  0  0  0  0  0  0  0  0  0
    3.7272   -1.4575    0.0000 C   0  0  0  0  0  0  0  0  0  0  0  0
    3.0127   -1.8700    0.0000 C   0  0  0  0  0  0  0  0  0  0  0  0
    2.2982   -1.4575    0.0000 C   0  0  0  0  0  0  0  0  0  0  0  0
    2.2982   -0.6325    0.0000 C   0  0  0  0  0  0  0  0  0  0  0  0
   -0.4125    0.0000    0.0000 Cl  0  5  0  0  0  0  0  0  0  0  0  0
  2  3  2  0  0  0  0
  3  4  1  0  0  0  0
  4  5  2  0  0  0  0
  4  6  1  0  0  0  0
  6  7  1  0  0  0  0
  7  8  1  0  0  0  0
  8  9  1  0  0  0  0
  7 10  1  0  0  0  0
 10 11  1  0  0  0  0
  6 12  1  0  0  0  0
  3 13  1  0  0  0  0
 13 14  2  0  0  0  0
 14 15  1  0  0  0  0
 15 16  2  0  0  0  0
  2 16  1  0  0  0  0
M  CHG  2   1   1  17  -1
M  END
>  <Name>
Amfepramone HCl

>  <CAS>
134-80-5

>  <Formula>
C13H20ClNO

>  <MolWt>
241.76 

>  <Bioactivity>
A appetite depressant considered to produce less central nervous system disturbance than most drugs in this therapeutic category. It is also considered to be among the safest for patients with hypertension.

>  <Pathways>
Neuroscience

>  <Target>
Noradrenaline uptake inhibitor

>  <Receptor>
Sodium-dependent noradrenaline transporter

>  <Reference>
1. Arias HR, et al. Int Rev Neurobiol. 2009;88:223-55. 

$$$$
132-20-7
  Mrv1561503291623562D          

 26 26  0  0  0  0            999 V2000
    1.6500   -0.0000    0.0000 O   0  0  0  0  0  0  0  0  0  0  0  0
    0.8250    0.0000    0.0000 C   0  0  0  0  0  0  0  0  0  0  0  0
    0.4125   -0.7145    0.0000 O   0  0  0  0  0  0  0  0  0  0  0  0
    0.4125    0.7145    0.0000 C   0  0  0  0  0  0  0  0  0  0  0  0
   -0.4125    0.7145    0.0000 C   0  0  0  0  0  0  0  0  0  0  0  0
   -0.8250    0.0000    0.0000 C   0  0  0  0  0  0  0  0  0  0  0  0
   -0.4125   -0.7145    0.0000 O   0  0  0  0  0  0  0  0  0  0  0  0
   -1.6500    0.0000    0.0000 O   0  0  0  0  0  0  0  0  0  0  0  0
    4.2502    0.1604    0.0000 C   0  0  0  0  0  0  0  0  0  0  0  0
    3.5357    0.5729    0.0000 C   0  0  0  0  0  0  0  0  0  0  0  0
    3.5357    1.3979    0.0000 C   0  0  0  0  0  0  0  0  0  0  0  0
    4.2502    1.8104    0.0000 C   0  0  0  0  0  0  0  0  0  0  0  0
    4.9647    1.3979    0.0000 N   0  0  0  0  0  0  0  0  0  0  0  0
    4.9647    0.5729    0.0000 C   0  0  0  0  0  0  0  0  0  0  0  0
    5.6791    0.1604    0.0000 C   0  0  0  0  0  0  0  0  0  0  0  0
    5.6791   -0.6646    0.0000 C   0  0  0  0  0  0  0  0  0  0  0  0
    6.3936   -1.0771    0.0000 C   0  0  0  0  0  0  0  0  0  0  0  0
    6.3936   -1.9021    0.0000 C   0  0  0  0  0  0  0  0  0  0  0  0
    5.6791   -2.3146    0.0000 C   0  0  0  0  0  0  0  0  0  0  0  0
    4.9647   -1.9021    0.0000 C   0  0  0  0  0  0  0  0  0  0  0  0
    4.9647   -1.0771    0.0000 C   0  0  0  0  0  0  0  0  0  0  0  0
    6.3936    0.5729    0.0000 C   0  0  0  0  0  0  0  0  0  0  0  0
    7.1081    0.1604    0.0000 C   0  0  0  0  0  0  0  0  0  0  0  0
    7.8225    0.5729    0.0000 N   0  0  0  0  0  0  0  0  0  0  0  0
    7.8225    1.3979    0.0000 C   0  0  0  0  0  0  0  0  0  0  0  0
    8.5370    0.1604    0.0000 C   0  0  0  0  0  0  0  0  0  0  0  0
  1  2  2  0  0  0  0
  2  3  1  0  0  0  0
  2  4  1  0  0  0  0
  4  5  2  0  0  0  0
  5  6  1  0  0  0  0
  6  7  2  0  0  0  0
  6  8  1  0  0  0  0
  9 10  2  0  0  0  0
 10 11  1  0  0  0  0
 11 12  2  0  0  0  0
 12 13  1  0  0  0  0
 13 14  2  0  0  0  0
  9 14  1  0  0  0  0
 14 15  1  0  0  0  0
 15 16  1  0  0  0  0
 16 17  2  0  0  0  0
 17 18  1  0  0  0  0
 18 19  2  0  0  0  0
 19 20  1  0  0  0  0
 20 21  2  0  0  0  0
 16 21  1  0  0  0  0
 15 22  1  0  0  0  0
 22 23  1  0  0  0  0
 23 24  1  0  0  0  0
 24 25  1  0  0  0  0
 24 26  1  0  0  0  0
M  END
>  <Name>
Pheniramine maleate

>  <CAS>
132-20-7

>  <Formula>
C16H20N2.C4H4O4

>  <MolWt>
356.42 

>  <Bioactivity>
Pheniramine Maleate is an antihistamine with anticholinergic properties used to treat allergic conditions such as hay fever or urticaria.

>  <Pathways>
Neuroscience

>  <Target>
Histamine Receptor antagonist

>  <Receptor>
Histamine receptor

>  <Reference>
1. Venugopal K, et al. Toxicol Int. 2014 Sep-Dec;21(3):319-21. 

$$$$
T1140
  Mrv1561503291623562D          

 33 35  0  0  1  0            999 V2000
   -0.7145    0.4383    0.0000 C   0  0  2  0  0  0  0  0  0  0  0  0
   -0.0000    0.8508    0.0000 C   0  0  1  0  0  0  0  0  0  0  0  0
   -0.0000    1.6758    0.0000 O   0  0  0  0  0  0  0  0  0  0  0  0
    0.7145    0.4383    0.0000 C   0  0  2  0  0  0  0  0  0  0  0  0
    1.4289    0.8508    0.0000 C   0  0  2  0  0  0  0  0  0  0  0  0
    2.1434    0.4383    0.0000 C   0  0  0  0  0  0  0  0  0  0  0  0
    2.1434   -0.3867    0.0000 C   0  0  0  0  0  0  0  0  0  0  0  0
    1.4289   -0.7992    0.0000 C   0  0  0  0  0  0  0  0  0  0  0  0
    0.7145   -0.3867    0.0000 C   0  0  0  0  0  0  0  0  0  0  0  0
   -0.0000   -0.7992    0.0000 C   0  0  0  0  0  0  0  0  0  0  0  0
   -0.0000   -1.6242    0.0000 O   0  0  0  0  0  0  0  0  0  0  0  0
   -0.7145   -0.3867    0.0000 C   0  0  1  0  0  0  0  0  0  0  0  0
   -0.7145   -1.2117    0.0000 O   0  0  0  0  0  0  0  0  0  0  0  0
   -1.4289   -0.7992    0.0000 C   0  0  0  0  0  0  0  0  0  0  0  0
   -1.4289   -1.6242    0.0000 O   0  0  0  0  0  0  0  0  0  0  0  0
   -2.1434   -0.3867    0.0000 C   0  0  0  0  0  0  0  0  0  0  0  0
   -2.1434    0.4383    0.0000 C   0  0  0  0  0  0  0  0  0  0  0  0
   -2.8579    0.8508    0.0000 O   0  0  0  0  0  0  0  0  0  0  0  0
   -1.4289    0.8508    0.0000 C   0  0  1  0  0  0  0  0  0  0  0  0
   -1.4289    1.6758    0.0000 N   0  3  0  0  0  0  0  0  0  0  0  0
   -0.7145    2.0883    0.0000 C   0  0  0  0  0  0  0  0  0  0  0  0
   -2.1434    2.0883    0.0000 C   0  0  0  0  0  0  0  0  0  0  0  0
   -2.8579   -0.7992    0.0000 C   0  0  0  0  0  0  0  0  0  0  0  0
   -2.8579   -1.6242    0.0000 O   0  0  0  0  0  0  0  0  0  0  0  0
   -3.5724   -0.3867    0.0000 N   0  0  0  0  0  0  0  0  0  0  0  0
    1.4289   -1.6242    0.0000 O   0  0  0  0  0  0  0  0  0  0  0  0
    2.8579   -0.7992    0.0000 C   0  0  0  0  0  0  0  0  0  0  0  0
    3.5724   -0.3867    0.0000 C   0  0  0  0  0  0  0  0  0  0  0  0
    3.5724    0.4383    0.0000 C   0  0  0  0  0  0  0  0  0  0  0  0
    2.8579    0.8508    0.0000 C   0  0  0  0  0  0  0  0  0  0  0  0
    2.8579   -1.6242    0.0000 O   0  0  0  0  0  0  0  0  0  0  0  0
    1.4289    1.6758    0.0000 C   0  0  0  0  0  0  0  0  0  0  0  0
    5.9295    0.0000    0.0000 Cl  0  5  0  0  0  0  0  0  0  0  0  0
  1  2  1  0  0  0  0
  2  3  1  1  0  0  0
  2  4  1  0  0  0  0
  4  5  1  0  0  0  0
  5  6  1  0  0  0  0
  6  7  2  0  0  0  0
  7  8  1  0  0  0  0
  8  9  2  0  0  0  0
  4  9  1  6  0  0  0
  9 10  1  0  0  0  0
 10 11  2  0  0  0  0
 10 12  1  0  0  0  0
  1 12  1  0  0  0  0
 12 13  1  1  0  0  0
 12 14  1  0  0  0  0
 14 15  2  0  0  0  0
 14 16  1  0  0  0  0
 16 17  1  0  0  0  0
 17 18  2  0  0  0  0
 17 19  1  0  0  0  0
  1 19  1  6  0  0  0
 19 20  1  1  0  0  0
 20 21  1  0  0  0  0
 20 22  1  0  0  0  0
 16 23  2  0  0  0  0
 23 24  1  0  0  0  0
 23 25  1  0  0  0  0
  8 26  1  0  0  0  0
  7 27  1  0  0  0  0
 27 28  2  0  0  0  0
 28 29  1  0  0  0  0
 29 30  2  0  0  0  0
  6 30  1  0  0  0  0
 27 31  1  0  0  0  0
  5 32  1  1  0  0  0
M  CHG  2  20   1  33  -1
M  END
>  <Name>
Doxycycline HCl

>  <CAS>
10592-13-9

>  <Formula>
C22H24N2O8.HCl

>  <MolWt>
480.90 

>  <Bioactivity>
Doxycycline Hydrochloride is a synthetic tetracycline derivative with similar antimicrobial activity.Doxycycline is a tetracycline antibiotic which is commonly used to treat a variety of infections. 

>  <Pathways>
Proteases/Proteasome

>  <Target>
MMP inhibitor

>  <Receptor>
MMP

>  <Reference>
1. Hanemaaijer R, et al. J Biol Chem, 1997, 272(50), 31504-31509.

$$$$
74103-07-4
  Mrv1561503291623562D          

 27 28  0  0  0  0            999 V2000
   -0.0439   -1.1489    0.0000 C   0  0  0  0  0  0  0  0  0  0  0  0
    0.7408   -0.8939    0.0000 C   0  0  0  0  0  0  0  0  0  0  0  0
    0.7408   -0.0689    0.0000 N   0  0  0  0  0  0  0  0  0  0  0  0
   -0.0439    0.1860    0.0000 C   0  0  0  0  0  0  0  0  0  0  0  0
   -0.5288   -0.4814    0.0000 C   0  0  0  0  0  0  0  0  0  0  0  0
   -0.2988    0.9706    0.0000 C   0  0  0  0  0  0  0  0  0  0  0  0
    0.2532    1.5837    0.0000 O   0  0  0  0  0  0  0  0  0  0  0  0
   -1.1058    1.1422    0.0000 C   0  0  0  0  0  0  0  0  0  0  0  0
   -1.6578    0.5291    0.0000 C   0  0  0  0  0  0  0  0  0  0  0  0
   -2.4648    0.7006    0.0000 C   0  0  0  0  0  0  0  0  0  0  0  0
   -2.7197    1.4852    0.0000 C   0  0  0  0  0  0  0  0  0  0  0  0
   -2.1677    2.0983    0.0000 C   0  0  0  0  0  0  0  0  0  0  0  0
   -1.3607    1.9268    0.0000 C   0  0  0  0  0  0  0  0  0  0  0  0
    1.5254    0.1860    0.0000 C   0  0  0  0  0  0  0  0  0  0  0  0
    2.0103   -0.4814    0.0000 C   0  0  0  0  0  0  0  0  0  0  0  0
    1.5254   -1.1489    0.0000 C   0  0  0  0  0  0  0  0  0  0  0  0
    1.7803   -1.9335    0.0000 C   0  0  0  0  0  0  0  0  0  0  0  0
    2.5873   -2.1050    0.0000 O   0  0  0  0  0  0  0  0  0  0  0  0
    1.2283   -2.5466    0.0000 O   0  0  0  0  0  0  0  0  0  0  0  0
    6.6164   -0.3232    0.0000 C   0  0  0  0  0  0  0  0  0  0  0  0
    7.3309    0.0893    0.0000 O   0  0  0  0  0  0  0  0  0  0  0  0
    5.9020    0.0893    0.0000 C   0  0  0  0  0  0  0  0  0  0  0  0
    6.3145    0.8038    0.0000 N   0  0  0  0  0  0  0  0  0  0  0  0
    5.1875    0.5018    0.0000 C   0  0  0  0  0  0  0  0  0  0  0  0
    4.4730    0.0893    0.0000 O   0  0  0  0  0  0  0  0  0  0  0  0
    5.4895   -0.6252    0.0000 C   0  0  0  0  0  0  0  0  0  0  0  0
    4.6645   -0.6252    0.0000 O   0  0  0  0  0  0  0  0  0  0  0  0
  1  2  2  0  0  0  0
  2  3  1  0  0  0  0
  3  4  1  0  0  0  0
  4  5  2  0  0  0  0
  1  5  1  0  0  0  0
  4  6  1  0  0  0  0
  6  7  2  0  0  0  0
  6  8  1  0  0  0  0
  8  9  2  0  0  0  0
  9 10  1  0  0  0  0
 10 11  2  0  0  0  0
 11 12  1  0  0  0  0
 12 13  2  0  0  0  0
  8 13  1  0  0  0  0
  3 14  1  0  0  0  0
 14 15  1  0  0  0  0
 15 16  1  0  0  0  0
  2 16  1  0  0  0  0
 16 17  1  0  0  0  0
 17 18  2  0  0  0  0
 17 19  1  0  0  0  0
 20 21  1  0  0  0  0
 20 22  1  0  0  0  0
 22 23  1  0  0  0  0
 22 24  1  0  0  0  0
 24 25  1  0  0  0  0
 22 26  1  0  0  0  0
 26 27  1  0  0  0  0
M  END
>  <Name>
Toradol

>  <CAS>
74103-07-4

>  <Formula>
C19H24N2O6

>  <MolWt>
376.40 

>  <Bioactivity>
A pyrrolizine carboxylic acid derivative structurally related to INDOMETHACIN. It is a non-steroidal anti-inflammatory agent used for analgesia for postoperative pain and inhibits cyclooxygenase activity. 

>  <Pathways>
Neuroscience

>  <Target>
COX

>  <Receptor>
Prostaglandin G/H synthase 1/2

>  <Reference>
1. Hocherl K, et al. Am J Physiol Renal Physiol. 2002 Aug;283(2):F294-301. 

$$$$
T1620
  Mrv1561503291623562D          

 28 30  0  0  0  0            999 V2000
   -2.3175    0.4228    0.0000 C   0  0  0  0  0  0  0  0  0  0  0  0
   -1.6031    0.0103    0.0000 C   0  0  0  0  0  0  0  0  0  0  0  0
   -1.6031   -0.8147    0.0000 C   0  0  0  0  0  0  0  0  0  0  0  0
   -0.8886   -1.2272    0.0000 O   0  0  0  0  0  0  0  0  0  0  0  0
   -0.1741   -0.8147    0.0000 C   0  0  0  0  0  0  0  0  0  0  0  0
   -0.1741    0.0103    0.0000 C   0  0  0  0  0  0  0  0  0  0  0  0
   -0.8886    0.4228    0.0000 N   0  0  0  0  0  0  0  0  0  0  0  0
   -0.8886    1.2478    0.0000 C   0  0  0  0  0  0  0  0  0  0  0  0
   -0.1741    1.6603    0.0000 C   0  0  0  0  0  0  0  0  0  0  0  0
    0.5404    1.2478    0.0000 C   0  0  0  0  0  0  0  0  0  0  0  0
    1.2548    1.6603    0.0000 O   0  0  0  0  0  0  0  0  0  0  0  0
    0.5404    0.4228    0.0000 C   0  0  0  0  0  0  0  0  0  0  0  0
    1.2548    0.0103    0.0000 C   0  0  0  0  0  0  0  0  0  0  0  0
    1.2548   -0.8147    0.0000 C   0  0  0  0  0  0  0  0  0  0  0  0
    0.5404   -1.2272    0.0000 C   0  0  0  0  0  0  0  0  0  0  0  0
    0.5404   -2.0522    0.0000 C   0  0  0  0  0  0  0  0  0  0  0  0
    0.2582   -2.8275    0.0000 C   0  0  0  0  0  0  0  0  0  0  0  0
   -0.2721   -2.1955    0.0000 C   0  0  0  0  0  0  0  0  0  0  0  0
    1.3528   -2.1955    0.0000 N   0  0  0  0  0  0  0  0  0  0  0  0
    1.9693   -1.2272    0.0000 F   0  0  0  0  0  0  0  0  0  0  0  0
   -0.1741    2.4853    0.0000 C   0  0  0  0  0  0  0  0  0  0  0  0
   -0.8886    2.8978    0.0000 O   0  0  0  0  0  0  0  0  0  0  0  0
    0.5404    2.8978    0.0000 O   0  0  0  0  0  0  0  0  0  0  0  0
    4.6800   -0.8250    0.0000 C   0  0  0  0  0  0  0  0  0  0  0  0
    4.6800    0.0000    0.0000 S   0  0  0  0  0  0  0  0  0  0  0  0
    4.6800    0.8250    0.0000 O   0  0  0  0  0  0  0  0  0  0  0  0
    5.5050   -0.0000    0.0000 O   0  0  0  0  0  0  0  0  0  0  0  0
    3.8550    0.0000    0.0000 O   0  0  0  0  0  0  0  0  0  0  0  0
  1  2  1  0  0  0  0
  2  3  1  0  0  0  0
  3  4  1  0  0  0  0
  4  5  1  0  0  0  0
  5  6  2  0  0  0  0
  6  7  1  0  0  0  0
  2  7  1  0  0  0  0
  7  8  1  0  0  0  0
  8  9  2  0  0  0  0
  9 10  1  0  0  0  0
 10 11  2  0  0  0  0
 10 12  1  0  0  0  0
  6 12  1  0  0  0  0
 12 13  2  0  0  0  0
 13 14  1  0  0  0  0
 14 15  2  0  0  0  0
  5 15  1  0  0  0  0
 15 16  1  0  0  0  0
 16 17  1  0  0  0  0
 17 18  1  0  0  0  0
 16 18  1  0  0  0  0
 16 19  1  0  0  0  0
 14 20  1  0  0  0  0
  9 21  1  0  0  0  0
 21 22  2  0  0  0  0
 21 23  1  0  0  0  0
 24 25  1  0  0  0  0
 25 26  2  0  0  0  0
 25 27  2  0  0  0  0
 25 28  1  0  0  0  0
M  END
>  <Name>
Pazufloxacin Mesylate

>  <CAS>
163680-77-1

>  <Formula>
C16H15FN2O4.CH4O3S

>  <MolWt>
414.40 

>  <Bioactivity>
Pazufloxacin (INN) is a fluoroquinolone antibiotic.

>  <Pathways>
DNA Damage/DNA Repair

>  <Target>
Topoisomerase inhibitor

>  <Receptor>
Topoisomerase II

>  <Reference>
1. Rubinstein E, et al. Chemotherapy. 2001;47 Suppl 3:3-8; discussion 44-8.

$$$$
T1675
  Mrv1561503291623562D          

 34 35  0  0  0  0            999 V2000
   -0.6284   -0.6979    0.0000 C   0  0  0  0  0  0  0  0  0  0  0  0
   -0.1435   -1.3654    0.0000 N   0  0  0  0  0  0  0  0  0  0  0  0
    0.6411   -1.1104    0.0000 C   0  0  0  0  0  0  0  0  0  0  0  0
    0.6411   -0.2854    0.0000 C   0  0  0  0  0  0  0  0  0  0  0  0
   -0.1435   -0.0305    0.0000 N   0  0  0  0  0  0  0  0  0  0  0  0
   -0.3984    0.7541    0.0000 C   0  0  0  0  0  0  0  0  0  0  0  0
   -1.2054    0.9256    0.0000 C   0  0  0  0  0  0  0  0  0  0  0  0
   -1.4604    1.7103    0.0000 O   0  0  0  0  0  0  0  0  0  0  0  0
   -2.2673    1.8818    0.0000 C   0  0  0  0  0  0  0  0  0  0  0  0
   -2.5223    2.6664    0.0000 P   0  0  0  0  0  0  0  0  0  0  0  0
   -2.7772    3.4510    0.0000 O   0  0  0  0  0  0  0  0  0  0  0  0
   -2.2252    4.0641    0.0000 C   0  0  0  0  0  0  0  0  0  0  0  0
   -2.4801    4.8488    0.0000 O   0  0  0  0  0  0  0  0  0  0  0  0
   -3.2871    5.0203    0.0000 C   0  0  0  0  0  0  0  0  0  0  0  0
   -3.5420    5.8049    0.0000 C   0  0  0  0  0  0  0  0  0  0  0  0
   -3.7970    6.5895    0.0000 C   0  0  0  0  0  0  0  0  0  0  0  0
   -4.3266    5.5500    0.0000 C   0  0  0  0  0  0  0  0  0  0  0  0
   -2.7574    6.0598    0.0000 C   0  0  0  0  0  0  0  0  0  0  0  0
   -3.8391    4.4072    0.0000 O   0  0  0  0  0  0  0  0  0  0  0  0
   -3.3069    2.4115    0.0000 O   0  0  0  0  0  0  0  0  0  0  0  0
   -3.9200    2.9635    0.0000 C   0  0  0  0  0  0  0  0  0  0  0  0
   -3.7485    3.7705    0.0000 O   0  0  0  0  0  0  0  0  0  0  0  0
   -4.3616    4.3225    0.0000 C   0  0  0  0  0  0  0  0  0  0  0  0
   -5.1462    4.0676    0.0000 C   0  0  0  0  0  0  0  0  0  0  0  0
   -5.4011    4.8522    0.0000 C   0  0  0  0  0  0  0  0  0  0  0  0
   -4.8912    3.2830    0.0000 C   0  0  0  0  0  0  0  0  0  0  0  0
   -5.9308    3.8126    0.0000 C   0  0  0  0  0  0  0  0  0  0  0  0
   -4.1900    5.1295    0.0000 O   0  0  0  0  0  0  0  0  0  0  0  0
   -1.7376    2.9214    0.0000 O   0  0  0  0  0  0  0  0  0  0  0  0
    1.3556    0.1271    0.0000 N   0  0  0  0  0  0  0  0  0  0  0  0
    2.0701   -0.2854    0.0000 C   0  0  0  0  0  0  0  0  0  0  0  0
    2.0701   -1.1104    0.0000 N   0  0  0  0  0  0  0  0  0  0  0  0
    1.3556   -1.5229    0.0000 C   0  0  0  0  0  0  0  0  0  0  0  0
    1.3556   -2.3479    0.0000 N   0  0  0  0  0  0  0  0  0  0  0  0
  1  2  2  0  0  0  0
  2  3  1  0  0  0  0
  3  4  2  0  0  0  0
  4  5  1  0  0  0  0
  1  5  1  0  0  0  0
  5  6  1  0  0  0  0
  6  7  1  0  0  0  0
  7  8  1  0  0  0  0
  8  9  1  0  0  0  0
  9 10  1  0  0  0  0
 10 11  1  0  0  0  0
 11 12  1  0  0  0  0
 12 13  1  0  0  0  0
 13 14  1  0  0  0  0
 14 15  1  0  0  0  0
 15 16  1  0  0  0  0
 15 17  1  0  0  0  0
 15 18  1  0  0  0  0
 14 19  2  0  0  0  0
 10 20  1  0  0  0  0
 20 21  1  0  0  0  0
 21 22  1  0  0  0  0
 22 23  1  0  0  0  0
 23 24  1  0  0  0  0
 24 25  1  0  0  0  0
 24 26  1  0  0  0  0
 24 27  1  0  0  0  0
 23 28  2  0  0  0  0
 10 29  2  0  0  0  0
  4 30  1  0  0  0  0
 30 31  2  0  0  0  0
 31 32  1  0  0  0  0
 32 33  2  0  0  0  0
  3 33  1  0  0  0  0
 33 34  1  0  0  0  0
M  END
>  <Name>
Adefovir dipivoxil

>  <CAS>
142340-99-6

>  <Formula>
C20H32N5O8P

>  <MolWt>
501.47 

>  <Bioactivity>
Adefovir dipivoxil, previously called bis-POM PMEA, with trade names Preveon and Hepsera, is an orally-administered acyclic nucleotide analog reverse transcriptase inhibitor (ntRTI) used for treatment of hepatitis B. It is ineffective against HIV-1.  Adefovir dipivoxil is the diester prodrug of adefovir.


>  <Pathways>
Microbiology & Virology

>  <Target>
Antiviral; Reverse Transcriptase Inhibitor

>  <Receptor>
Reverse Transcriptase Inhibitor;Protein P;Reverse Transcriptase

>  <Reference>
1. Julander JG, et al. Antiviral Res, 2002, 55(1), 27-40.

$$$$
5053-08-7
  Mrv1561503291623562D          

 21 21  0  0  0  0            999 V2000
    0.4125    0.0000    0.0000 H   0  3  0  0  0  0  0  0  0  0  0  0
    8.2423   -0.2160    0.0000 C   0  0  0  0  0  0  0  0  0  0  0  0
    7.8298    0.4985    0.0000 C   0  0  0  0  0  0  0  0  0  0  0  0
    7.0048    0.4985    0.0000 C   0  0  0  0  0  0  0  0  0  0  0  0
    6.5923   -0.2160    0.0000 C   0  0  0  0  0  0  0  0  0  0  0  0
    5.7673   -0.2160    0.0000 N   0  0  0  0  0  0  0  0  0  0  0  0
    5.3548   -0.9305    0.0000 C   0  0  0  0  0  0  0  0  0  0  0  0
    4.5298   -0.9305    0.0000 C   0  0  0  0  0  0  0  0  0  0  0  0
    4.1173   -0.2160    0.0000 C   0  0  0  0  0  0  0  0  0  0  0  0
    3.6324   -0.8834    0.0000 O   0  0  0  0  0  0  0  0  0  0  0  0
    2.8478   -0.6285    0.0000 C   0  0  0  0  0  0  0  0  0  0  0  0
    2.1804   -1.1134    0.0000 O   0  0  0  0  0  0  0  0  0  0  0  0
    2.8478    0.1965    0.0000 N   0  0  0  0  0  0  0  0  0  0  0  0
    3.6324    0.4514    0.0000 C   0  0  0  0  0  0  0  0  0  0  0  0
    4.5298    0.4985    0.0000 C   0  0  0  0  0  0  0  0  0  0  0  0
    5.3548    0.4985    0.0000 C   0  0  0  0  0  0  0  0  0  0  0  0
    8.2423    1.2129    0.0000 C   0  0  0  0  0  0  0  0  0  0  0  0
    9.0673    1.2129    0.0000 C   0  0  0  0  0  0  0  0  0  0  0  0
    9.4798    0.4985    0.0000 C   0  0  0  0  0  0  0  0  0  0  0  0
    9.0673   -0.2160    0.0000 C   0  0  0  0  0  0  0  0  0  0  0  0
   -0.4125    0.0000    0.0000 Cl  0  5  0  0  0  0  0  0  0  0  0  0
  2  3  2  0  0  0  0
  3  4  1  0  0  0  0
  4  5  1  0  0  0  0
  5  6  1  0  0  0  0
  6  7  1  0  0  0  0
  7  8  1  0  0  0  0
  8  9  1  0  0  0  0
  9 10  1  0  0  0  0
 10 11  1  0  0  0  0
 11 12  2  0  0  0  0
 11 13  1  0  0  0  0
 13 14  1  0  0  0  0
  9 14  1  0  0  0  0
  9 15  1  0  0  0  0
 15 16  1  0  0  0  0
  6 16  1  0  0  0  0
  3 17  1  0  0  0  0
 17 18  2  0  0  0  0
 18 19  1  0  0  0  0
 19 20  2  0  0  0  0
  2 20  1  0  0  0  0
M  CHG  2   1   1  21  -1
M  END
>  <Name>
Fenspiride HCl

>  <CAS>
5053-08-7

>  <Formula>
C15H20N2O2.HCl

>  <MolWt>
296.79 

>  <Bioactivity>
Fenspiride is an oxazolidinone spiro compound used as a drug in the treatment of certain respiratory diseases. It is approved for use in Russia for the treatment of acute and chronic inflammatory diseases of ENT organs and the respiratory tract (like rhinopharyngitis, laryngitis, tracheobronchitis, otitis and sinusitis), as well as for maintenance treatment of asthma. 

>  <Pathways>
Metabolism; GPCR/G Protein; Neuroscience

>  <Target>
Adrenergic Receptor ;Histamine antagonist;PDE inhibitor

>  <Receptor>
?-adrenergic receptor;Histamine H1 receptor ;PDE4,3

>  <Reference>
1. Cortijo J, et al. Eur J Pharmacol, 1998, 341(1), 79-86.

$$$$
84-22-0
  Mrv1561503291623562D          

 15 17  0  0  0  0            999 V2000
   -0.0000    0.0000    0.0000 C   0  0  0  0  0  0  0  0  0  0  0  0
   -0.7145   -0.4125    0.0000 C   0  0  0  0  0  0  0  0  0  0  0  0
   -0.7145   -1.2375    0.0000 C   0  0  0  0  0  0  0  0  0  0  0  0
   -0.0000   -1.6500    0.0000 C   0  0  0  0  0  0  0  0  0  0  0  0
    0.7145   -1.2375    0.0000 C   0  0  0  0  0  0  0  0  0  0  0  0
    0.7145   -0.4125    0.0000 C   0  0  0  0  0  0  0  0  0  0  0  0
    1.4289    0.0000    0.0000 C   0  0  0  0  0  0  0  0  0  0  0  0
    1.4289    0.8250    0.0000 C   0  0  0  0  0  0  0  0  0  0  0  0
    0.7615    1.3099    0.0000 N   0  0  0  0  0  0  0  0  0  0  0  0
    1.0164    2.0945    0.0000 C   0  0  0  0  0  0  0  0  0  0  0  0
    1.8414    2.0945    0.0000 C   0  0  0  0  0  0  0  0  0  0  0  0
    2.0964    1.3099    0.0000 N   0  0  0  0  0  0  0  0  0  0  0  0
    2.1434   -0.4125    0.0000 C   0  0  0  0  0  0  0  0  0  0  0  0
    2.1434   -1.2375    0.0000 C   0  0  0  0  0  0  0  0  0  0  0  0
    1.4289   -1.6500    0.0000 C   0  0  0  0  0  0  0  0  0  0  0  0
  1  2  2  0  0  0  0
  2  3  1  0  0  0  0
  3  4  2  0  0  0  0
  4  5  1  0  0  0  0
  5  6  2  0  0  0  0
  1  6  1  0  0  0  0
  6  7  1  0  0  0  0
  7  8  1  0  0  0  0
  8  9  2  0  0  0  0
  9 10  1  0  0  0  0
 10 11  1  0  0  0  0
 11 12  1  0  0  0  0
  8 12  1  0  0  0  0
  7 13  1  0  0  0  0
 13 14  1  0  0  0  0
 14 15  1  0  0  0  0
  5 15  1  0  0  0  0
M  END
>  <Name>
Tetryzoline

>  <CAS>
84-22-0

>  <Formula>
C13H16N2

>  <MolWt>
200.28 

>  <Bioactivity>
Tetrahydrozoline is an alpha agonist and its main mechanism of action is the constriction of conjunctival blood vessels. This serves to relieve the redness of the eye caused by minor ocular irritants.

>  <Pathways>
GPCR/G Protein

>  <Target>
Adrenergic Receptor agonist

>  <Receptor>
?-adrenergic receptor

>  <Reference>
1. Dahlström M, et al. J Exp Zool A Comp Exp Biol. 2005 Jul 1;303(7):551-62.

$$$$
T1598
  Mrv1561503291623562D          

 15 15  0  0  0  0            999 V2000
    0.4125    0.0000    0.0000 H   0  3  0  0  0  0  0  0  0  0  0  0
    2.7906   -1.3484    0.0000 C   0  0  0  0  0  0  0  0  0  0  0  0
    3.5051   -0.9359    0.0000 C   0  0  0  0  0  0  0  0  0  0  0  0
    4.2196   -1.3484    0.0000 N   0  0  0  0  0  0  0  0  0  0  0  0
    3.5050   -0.1109    0.0000 C   0  0  0  0  0  0  0  0  0  0  0  0
    2.7696   -0.4846    0.0000 C   0  0  0  0  0  0  0  0  0  0  0  0
    3.2190    0.3057    0.0000 C   0  0  0  0  0  0  0  0  0  0  0  0
    3.2190    1.0531    0.0000 C   0  0  0  0  0  0  0  0  0  0  0  0
    3.9545    1.4268    0.0000 C   0  0  0  0  0  0  0  0  0  0  0  0
    3.5050    0.6365    0.0000 C   0  0  0  0  0  0  0  0  0  0  0  0
    4.6901    1.0531    0.0000 C   0  0  0  0  0  0  0  0  0  0  0  0
    4.6901    0.3057    0.0000 C   0  0  0  0  0  0  0  0  0  0  0  0
    4.2406   -0.4846    0.0000 C   0  0  0  0  0  0  0  0  0  0  0  0
    3.9545   -0.0680    0.0000 C   0  0  0  0  0  0  0  0  0  0  0  0
   -0.4125    0.0000    0.0000 Cl  0  5  0  0  0  0  0  0  0  0  0  0
  2  3  1  0  0  0  0
  3  4  1  0  0  0  0
  3  5  1  0  0  0  0
  5  6  1  0  0  0  0
  6  7  1  0  0  0  0
  7 14  1  0  0  0  0
  8  9  1  0  0  0  0
  9 10  1  0  0  0  0
  5 10  1  0  0  0  0
  9 11  1  0  0  0  0
 12 14  1  0  0  0  0
 12 13  1  0  0  0  0
  5 13  1  0  0  0  0
 11 12  1  0  0  0  0
  7  8  1  0  0  0  0
M  CHG  2   1   1  15  -1
M  END
>  <Name>
Rimantadine HCl

>  <CAS>
1501-84-4

>  <Formula>
C12H22ClN.HCl

>  <MolWt>
215.76 

>  <Bioactivity>
An RNA synthesis inhibitor that is used as an antiviral agent in the prophylaxis and treatment of influenza

>  <Pathways>
DNA Damage/DNA Repair;Microbiology & Virology

>  <Target>
Antibiotic; DNA/RNA Synthesis inhibitor

>  <Receptor>
RNA

>  <Reference>
1. Liu BM, et al. Iran J Pharm Res. 2014 Fall;13(4):1183-90.

$$$$
T0860
  Mrv1561503291623562D          

 28 28  0  0  0  0            999 V2000
    0.4125    0.0000    0.0000 H   0  3  0  0  0  0  0  0  0  0  0  0
    4.1986   -0.1269    0.0000 C   0  0  0  0  0  0  0  0  0  0  0  0
    4.9131   -0.5394    0.0000 C   0  0  0  0  0  0  0  0  0  0  0  0
    4.9131   -1.3644    0.0000 C   0  0  0  0  0  0  0  0  0  0  0  0
    5.6275   -1.7769    0.0000 O   0  0  0  0  0  0  0  0  0  0  0  0
    4.1986   -1.7769    0.0000 C   0  0  0  0  0  0  0  0  0  0  0  0
    4.1986   -2.6019    0.0000 N   0  0  0  0  0  0  0  0  0  0  0  0
    3.4841   -3.0144    0.0000 C   0  0  0  0  0  0  0  0  0  0  0  0
    2.7696   -2.6019    0.0000 C   0  0  0  0  0  0  0  0  0  0  0  0
    2.7696   -1.7769    0.0000 C   0  0  0  0  0  0  0  0  0  0  0  0
    3.4841   -1.3644    0.0000 C   0  0  0  0  0  0  0  0  0  0  0  0
    5.6275   -0.1269    0.0000 C   0  0  0  0  0  0  0  0  0  0  0  0
    5.6275    0.6981    0.0000 C   0  0  0  0  0  0  0  0  0  0  0  0
    4.9131    1.1106    0.0000 N   0  0  0  0  0  0  0  0  0  0  0  0
    4.1986    0.6981    0.0000 C   0  0  0  0  0  0  0  0  0  0  0  0
    3.4841    1.1106    0.0000 C   0  0  0  0  0  0  0  0  0  0  0  0
    2.7696    1.5231    0.0000 F   0  0  0  0  0  0  0  0  0  0  0  0
    3.0716    0.3961    0.0000 F   0  0  0  0  0  0  0  0  0  0  0  0
    3.8966    1.8250    0.0000 F   0  0  0  0  0  0  0  0  0  0  0  0
    6.3420    1.1106    0.0000 C   0  0  0  0  0  0  0  0  0  0  0  0
    7.0565    0.6981    0.0000 C   0  0  0  0  0  0  0  0  0  0  0  0
    7.0565   -0.1269    0.0000 C   0  0  0  0  0  0  0  0  0  0  0  0
    6.3420   -0.5394    0.0000 C   0  0  0  0  0  0  0  0  0  0  0  0
    6.3420    1.9356    0.0000 C   0  0  0  0  0  0  0  0  0  0  0  0
    6.3420    2.7606    0.0000 F   0  0  0  0  0  0  0  0  0  0  0  0
    7.1670    1.9356    0.0000 F   0  0  0  0  0  0  0  0  0  0  0  0
    5.5170    1.9356    0.0000 F   0  0  0  0  0  0  0  0  0  0  0  0
   -0.4125    0.0000    0.0000 Cl  0  5  0  0  0  0  0  0  0  0  0  0
  2  3  2  0  0  0  0
  3  4  1  0  0  0  0
  4  5  1  0  0  0  0
  4  6  1  0  0  0  0
  6  7  1  0  0  0  0
  7  8  1  0  0  0  0
  8  9  1  0  0  0  0
  9 10  1  0  0  0  0
 10 11  1  0  0  0  0
  6 11  1  0  0  0  0
  3 12  1  0  0  0  0
 12 13  2  0  0  0  0
 13 14  1  0  0  0  0
 14 15  2  0  0  0  0
  2 15  1  0  0  0  0
 15 16  1  0  0  0  0
 16 17  1  0  0  0  0
 16 18  1  0  0  0  0
 16 19  1  0  0  0  0
 13 20  1  0  0  0  0
 20 21  2  0  0  0  0
 21 22  1  0  0  0  0
 22 23  2  0  0  0  0
 12 23  1  0  0  0  0
 20 24  1  0  0  0  0
 24 25  1  0  0  0  0
 24 26  1  0  0  0  0
 24 27  1  0  0  0  0
M  CHG  2   1   1  28  -1
M  END
>  <Name>
Mefloquine HCl

>  <CAS>
51773-92-3

>  <Formula>
C17H17ClF6N2O

>  <MolWt>
414.77 

>  <Bioactivity>
Mefloquine HCl is a blood schizonticide by inhibiting hemozoin formation, used as an antimalarial drug.

>  <Pathways>
Microbiology & Virology

>  <Target>
Hemozoin synthesis inhibitor

>  <Receptor>
hemozoin

>  <Reference>
1. Fitch CD. Life Sci. 2004 Mar 5; 74(16):1957-72.

$$$$
138-37-4
  Mrv1561503291623562D          

 14 12  0  0  0  0            999 V2000
    0.4125    0.0000    0.0000 H   0  3  0  0  0  0  0  0  0  0  0  0
    4.3091   -0.1031    0.0000 C   0  0  0  0  0  0  0  0  0  0  0  0
    3.5946   -0.5156    0.0000 C   0  0  0  0  0  0  0  0  0  0  0  0
    3.5946   -1.3406    0.0000 S   0  0  0  0  0  0  0  0  0  0  0  0
    3.5946   -2.1656    0.0000 O   0  0  0  0  0  0  0  0  0  0  0  0
    4.4196   -1.3406    0.0000 O   0  0  0  0  0  0  0  0  0  0  0  0
    2.7696   -1.3406    0.0000 N   0  0  0  0  0  0  0  0  0  0  0  0
    2.8802   -0.1031    0.0000 C   0  0  0  0  0  0  0  0  0  0  0  0
    2.8802    0.7219    0.0000 C   0  0  0  0  0  0  0  0  0  0  0  0
    3.5946    1.1344    0.0000 C   0  0  0  0  0  0  0  0  0  0  0  0
    4.3091    0.7219    0.0000 C   0  0  0  0  0  0  0  0  0  0  0  0
    3.5946    1.9594    0.0000 C   0  0  0  0  0  0  0  0  0  0  0  0
    2.8802    2.3719    0.0000 N   0  0  0  0  0  0  0  0  0  0  0  0
   -0.4125    0.0000    0.0000 Cl  0  5  0  0  0  0  0  0  0  0  0  0
  2  3  2  0  0  0  0
  3  4  1  0  0  0  0
  4  5  2  0  0  0  0
  4  6  2  0  0  0  0
  4  7  1  0  0  0  0
  3  8  1  0  0  0  0
  8  9  2  0  0  0  0
  9 10  1  0  0  0  0
 10 11  2  0  0  0  0
  2 11  1  0  0  0  0
 10 12  1  0  0  0  0
 12 13  1  0  0  0  0
M  CHG  2   1   1  14  -1
M  END
>  <Name>
Mafenide HCl

>  <CAS>
138-37-4

>  <Formula>
C7H11ClN2O2S

>  <MolWt>
222.69 

>  <Bioactivity>
A sulfonamide that inhibits the enzyme carbonic anhydrase and is used as topical anti-infective, especially in burn therapy.


>  <Pathways>
Metabolism

>  <Target>
Carbonic anhydrase inhibitor

>  <Receptor>
CA 6

>  <Reference>
1. Demirdag R, et al. Bioorg Med Chem. 2013 Mar 15;21(6):1522-5. 

$$$$
34381-68-5
  Mrv1561503291623562D          

 26 24  0  0  0  0            999 V2000
    0.4125    0.0000    0.0000 H   0  3  0  0  0  0  0  0  0  0  0  0
    5.6275   -1.2375    0.0000 C   0  0  0  0  0  0  0  0  0  0  0  0
    4.9131   -0.8250    0.0000 C   0  0  0  0  0  0  0  0  0  0  0  0
    4.9131   -0.0000    0.0000 C   0  0  0  0  0  0  0  0  0  0  0  0
    5.6275    0.4125    0.0000 C   0  0  0  0  0  0  0  0  0  0  0  0
    6.3420    0.0000    0.0000 C   0  0  0  0  0  0  0  0  0  0  0  0
    6.3420   -0.8250    0.0000 C   0  0  0  0  0  0  0  0  0  0  0  0
    7.0565   -1.2375    0.0000 O   0  0  0  0  0  0  0  0  0  0  0  0
    7.7709   -0.8250    0.0000 C   0  0  0  0  0  0  0  0  0  0  0  0
    8.4854   -1.2375    0.0000 C   0  0  0  0  0  0  0  0  0  0  0  0
    8.4854   -2.0625    0.0000 O   0  0  0  0  0  0  0  0  0  0  0  0
    9.1999   -0.8250    0.0000 C   0  0  0  0  0  0  0  0  0  0  0  0
    9.9144   -1.2375    0.0000 N   0  0  0  0  0  0  0  0  0  0  0  0
   10.6288   -0.8250    0.0000 C   0  0  0  0  0  0  0  0  0  0  0  0
   11.3433   -1.2375    0.0000 C   0  0  0  0  0  0  0  0  0  0  0  0
   10.6288    0.0000    0.0000 C   0  0  0  0  0  0  0  0  0  0  0  0
    7.0565    0.4125    0.0000 C   0  0  0  0  0  0  0  0  0  0  0  0
    7.7709    0.0000    0.0000 O   0  0  0  0  0  0  0  0  0  0  0  0
    7.0565    1.2375    0.0000 C   0  0  0  0  0  0  0  0  0  0  0  0
    4.1986    0.4125    0.0000 N   0  0  0  0  0  0  0  0  0  0  0  0
    4.1986    1.2375    0.0000 C   0  0  0  0  0  0  0  0  0  0  0  0
    4.9131    1.6500    0.0000 O   0  0  0  0  0  0  0  0  0  0  0  0
    3.4841    1.6500    0.0000 C   0  0  0  0  0  0  0  0  0  0  0  0
    3.4841    2.4750    0.0000 C   0  0  0  0  0  0  0  0  0  0  0  0
    2.7696    2.8875    0.0000 C   0  0  0  0  0  0  0  0  0  0  0  0
   -0.4125    0.0000    0.0000 Cl  0  5  0  0  0  0  0  0  0  0  0  0
  2  3  2  0  0  0  0
  3  4  1  0  0  0  0
  4  5  2  0  0  0  0
  5  6  1  0  0  0  0
  6  7  2  0  0  0  0
  2  7  1  0  0  0  0
  7  8  1  0  0  0  0
  8  9  1  0  0  0  0
  9 10  1  0  0  0  0
 10 11  1  0  0  0  0
 10 12  1  0  0  0  0
 12 13  1  0  0  0  0
 13 14  1  0  0  0  0
 14 15  1  0  0  0  0
 14 16  1  0  0  0  0
  6 17  1  0  0  0  0
 17 18  2  0  0  0  0
 17 19  1  0  0  0  0
  4 20  1  0  0  0  0
 20 21  1  0  0  0  0
 21 22  2  0  0  0  0
 21 23  1  0  0  0  0
 23 24  1  0  0  0  0
 24 25  1  0  0  0  0
M  CHG  2   1   1  26  -1
M  END
>  <Name>
Acebutolol HCl

>  <CAS>
34381-68-5

>  <Formula>
C18H29ClN2O4

>  <MolWt>
372.89 

>  <Bioactivity>
A cardioselective beta-1 adrenergic antagonist with little effect on the bronchial receptors. The drug has stabilizing and quinidine-like effects on cardiac rhythm, as well as weak inherent sympathomimetic action.


>  <Pathways>
GPCR/G Protein

>  <Target>
Adrenergic Receptor antagonist

>  <Receptor>
Adrenergic Receptor

>  <Reference>
1. van den Meiracker AH, et al. J Cardiovasc Pharmacol. 1988 Apr;11(4):413-23.

$$$$
T0344
  Mrv1561503291623562D          

 25 27  0  0  0  0            999 V2000
   -0.7145   -0.4125    0.0000 C   0  0  0  0  0  0  0  0  0  0  0  0
   -0.7145    0.4125    0.0000 C   0  0  0  0  0  0  0  0  0  0  0  0
   -0.0000    0.8250    0.0000 C   0  0  0  0  0  0  0  0  0  0  0  0
    0.7145    0.4125    0.0000 C   0  0  0  0  0  0  0  0  0  0  0  0
    0.7145   -0.4125    0.0000 C   0  0  0  0  0  0  0  0  0  0  0  0
   -0.0000   -0.8250    0.0000 C   0  0  0  0  0  0  0  0  0  0  0  0
   -0.0000   -1.6500    0.0000 Cl  0  0  0  0  0  0  0  0  0  0  0  0
    1.4289   -0.8250    0.0000 C   0  0  0  0  0  0  0  0  0  0  0  0
    1.4289   -1.6500    0.0000 O   0  0  0  0  0  0  0  0  0  0  0  0
    2.1434   -2.0625    0.0000 C   0  0  0  0  0  0  0  0  0  0  0  0
    2.8579   -1.6500    0.0000 C   0  0  0  0  0  0  0  0  0  0  0  0
    2.8579   -0.8250    0.0000 N   0  0  0  0  0  0  0  0  0  0  0  0
    3.5253   -0.3401    0.0000 C   0  0  0  0  0  0  0  0  0  0  0  0
    3.2704    0.4445    0.0000 N   0  0  0  0  0  0  0  0  0  0  0  0
    2.4454    0.4445    0.0000 C   0  0  0  0  0  0  0  0  0  0  0  0
    2.1904   -0.3401    0.0000 C   0  0  0  0  0  0  0  0  0  0  0  0
    2.1434   -2.8875    0.0000 C   0  0  0  0  0  0  0  0  0  0  0  0
    2.8579   -3.3000    0.0000 C   0  0  0  0  0  0  0  0  0  0  0  0
    2.8579   -4.1250    0.0000 C   0  0  0  0  0  0  0  0  0  0  0  0
    2.1434   -4.5375    0.0000 C   0  0  0  0  0  0  0  0  0  0  0  0
    1.4289   -4.1250    0.0000 C   0  0  0  0  0  0  0  0  0  0  0  0
    1.4289   -3.3000    0.0000 C   0  0  0  0  0  0  0  0  0  0  0  0
    2.1434   -5.3625    0.0000 Cl  0  0  0  0  0  0  0  0  0  0  0  0
    3.5724   -2.8875    0.0000 Cl  0  0  0  0  0  0  0  0  0  0  0  0
   -1.4289    0.8250    0.0000 Cl  0  0  0  0  0  0  0  0  0  0  0  0
  1  2  2  0  0  0  0
  2  3  1  0  0  0  0
  3  4  2  0  0  0  0
  4  5  1  0  0  0  0
  5  6  2  0  0  0  0
  1  6  1  0  0  0  0
  6  7  1  0  0  0  0
  5  8  1  0  0  0  0
  8  9  1  0  0  0  0
  9 10  1  0  0  0  0
 10 11  1  0  0  0  0
 11 12  1  0  0  0  0
 12 13  1  0  0  0  0
 13 14  2  0  0  0  0
 14 15  1  0  0  0  0
 15 16  2  0  0  0  0
 12 16  1  0  0  0  0
 10 17  1  0  0  0  0
 17 18  2  0  0  0  0
 18 19  1  0  0  0  0
 19 20  2  0  0  0  0
 20 21  1  0  0  0  0
 21 22  2  0  0  0  0
 17 22  1  0  0  0  0
 20 23  1  0  0  0  0
 18 24  1  0  0  0  0
  2 25  1  0  0  0  0
M  END
>  <Name>
Miconazole

>  <CAS>
22916-47-8

>  <Formula>
C18H14Cl4N2O

>  <MolWt>
416.13 

>  <Bioactivity>
An imidazole antifungal agent that is used topically and by intravenous infusion

>  <Pathways>
Microbiology & Virology; Membrane Transporter/Ion Channel

>  <Target>
Potassium Channel inhibitor;NOS inhibitor;Antibiotic

>  <Receptor>
Potassium Channel ;iNOS, eNOS ;14-? Demethylase

>  <Reference>
1. White TC, et al. Clin Microbiol Rev. 1998 Apr;11(2):382-402. 

$$$$
85-79-0
  Mrv1561503291623562D          

 25 26  0  0  0  0            999 V2000
    1.6204    0.1105    0.0000 C   0  0  0  0  0  0  0  0  0  0  0  0
    1.2079   -0.6039    0.0000 C   0  0  0  0  0  0  0  0  0  0  0  0
    0.3829   -0.6039    0.0000 C   0  0  0  0  0  0  0  0  0  0  0  0
   -0.0296    0.1105    0.0000 C   0  0  0  0  0  0  0  0  0  0  0  0
    0.3829    0.8250    0.0000 C   0  0  0  0  0  0  0  0  0  0  0  0
   -0.0296    1.5395    0.0000 N   0  0  0  0  0  0  0  0  0  0  0  0
    0.3829    2.2539    0.0000 C   0  0  0  0  0  0  0  0  0  0  0  0
    1.2079    2.2539    0.0000 C   0  0  0  0  0  0  0  0  0  0  0  0
    1.6204    1.5395    0.0000 C   0  0  0  0  0  0  0  0  0  0  0  0
    1.2079    0.8250    0.0000 C   0  0  0  0  0  0  0  0  0  0  0  0
    2.4454    1.5395    0.0000 C   0  0  0  0  0  0  0  0  0  0  0  0
    2.8579    0.8250    0.0000 N   0  0  0  0  0  0  0  0  0  0  0  0
    3.6829    0.8250    0.0000 C   0  0  0  0  0  0  0  0  0  0  0  0
    4.0954    0.1105    0.0000 C   0  0  0  0  0  0  0  0  0  0  0  0
    4.9204    0.1105    0.0000 N   0  0  0  0  0  0  0  0  0  0  0  0
    5.3329   -0.6039    0.0000 C   0  0  0  0  0  0  0  0  0  0  0  0
    6.1579   -0.6039    0.0000 C   0  0  0  0  0  0  0  0  0  0  0  0
    5.3329    0.8250    0.0000 C   0  0  0  0  0  0  0  0  0  0  0  0
    6.1579    0.8250    0.0000 C   0  0  0  0  0  0  0  0  0  0  0  0
    2.8579    2.2539    0.0000 O   0  0  0  0  0  0  0  0  0  0  0  0
   -0.0296    2.9684    0.0000 O   0  0  0  0  0  0  0  0  0  0  0  0
    0.3829    3.6829    0.0000 C   0  0  0  0  0  0  0  0  0  0  0  0
   -0.0296    4.3974    0.0000 C   0  0  0  0  0  0  0  0  0  0  0  0
    0.3829    5.1118    0.0000 C   0  0  0  0  0  0  0  0  0  0  0  0
   -0.0296    5.8263    0.0000 C   0  0  0  0  0  0  0  0  0  0  0  0
  1  2  2  0  0  0  0
  2  3  1  0  0  0  0
  3  4  2  0  0  0  0
  4  5  1  0  0  0  0
  5  6  2  0  0  0  0
  6  7  1  0  0  0  0
  7  8  2  0  0  0  0
  8  9  1  0  0  0  0
  9 10  2  0  0  0  0
  1 10  1  0  0  0  0
  5 10  1  0  0  0  0
  9 11  1  0  0  0  0
 11 12  1  0  0  0  0
 12 13  1  0  0  0  0
 13 14  1  0  0  0  0
 14 15  1  0  0  0  0
 15 16  1  0  0  0  0
 16 17  1  0  0  0  0
 15 18  1  0  0  0  0
 18 19  1  0  0  0  0
 11 20  2  0  0  0  0
  7 21  1  0  0  0  0
 21 22  1  0  0  0  0
 22 23  1  0  0  0  0
 23 24  1  0  0  0  0
 24 25  1  0  0  0  0
M  END
>  <Name>
Dibucaine

>  <CAS>
85-79-0

>  <Formula>
C20H29N3O2

>  <MolWt>
343.46 

>  <Bioactivity>
A local anesthetic of the amide type now generally used for surface anesthesia. It is one of the most potent and toxic of the long-acting local anesthetics and its parenteral use is restricted to spinal anesthesia. (From Martindale, The Extra Pharmacopoeia, 30th ed, p1006)  

>  <Pathways>
Membrane Transporter/Ion Channel

>  <Target>
Calmodulin inhibitor;Sodium Channel inhibitor;ChE inhibitor

>  <Receptor>
Calmodulin;Sodium channel;ChE

>  <Reference>
1. Oka M, et al. Eur J Pharmacol. 2002 Oct 4;452(2):175-81. 

$$$$
T1456
  Mrv1561503291623562D          

 39 43  0  0  1  0            999 V2000
    2.8579   -4.1250    0.0000 C   0  0  2  0  0  0  0  0  0  0  0  0
    3.5724   -3.7125    0.0000 C   0  0  0  0  0  0  0  0  0  0  0  0
    3.5724   -2.8875    0.0000 C   0  0  0  0  0  0  0  0  0  0  0  0
    4.2868   -2.4750    0.0000 C   0  0  0  0  0  0  0  0  0  0  0  0
    5.0013   -2.8875    0.0000 C   0  0  0  0  0  0  0  0  0  0  0  0
    5.7158   -2.4750    0.0000 C   0  0  0  0  0  0  0  0  0  0  0  0
    6.4302   -2.8875    0.0000 C   0  0  0  0  0  0  0  0  0  0  0  0
    7.1447   -2.4750    0.0000 C   0  0  0  0  0  0  0  0  0  0  0  0
    7.8592   -2.8875    0.0000 C   0  0  0  0  0  0  0  0  0  0  0  0
    7.8592   -3.7125    0.0000 C   0  0  0  0  0  0  0  0  0  0  0  0
    7.1447   -4.1250    0.0000 C   0  0  0  0  0  0  0  0  0  0  0  0
    6.4302   -3.7125    0.0000 C   0  0  0  0  0  0  0  0  0  0  0  0
    5.7158   -4.1250    0.0000 C   0  0  0  0  0  0  0  0  0  0  0  0
    5.0013   -3.7125    0.0000 C   0  0  0  0  0  0  0  0  0  0  0  0
    4.2868   -4.1250    0.0000 C   0  0  0  0  0  0  0  0  0  0  0  0
    4.2868   -4.9500    0.0000 O   0  0  0  0  0  0  0  0  0  0  0  0
    5.7158   -4.9500    0.0000 O   0  0  0  0  0  0  0  0  0  0  0  0
    7.1447   -4.9500    0.0000 O   0  0  0  0  0  0  0  0  0  0  0  0
    6.4302   -5.3625    0.0000 C   0  0  0  0  0  0  0  0  0  0  0  0
    5.7158   -1.6500    0.0000 O   0  0  0  0  0  0  0  0  0  0  0  0
    4.2868   -1.6500    0.0000 O   0  0  0  0  0  0  0  0  0  0  0  0
    2.8579   -2.4750    0.0000 C   0  0  0  0  0  0  0  0  0  0  0  0
    2.1434   -2.8875    0.0000 C   0  0  2  0  0  0  0  0  0  0  0  0
    1.8612   -2.1123    0.0000 C   0  0  0  0  0  0  0  0  0  0  0  0
    1.0488   -1.9690    0.0000 C   0  0  0  0  0  0  0  0  0  0  0  0
    0.7666   -1.1937    0.0000 O   0  0  0  0  0  0  0  0  0  0  0  0
    2.3915   -1.4803    0.0000 O   0  0  0  0  0  0  0  0  0  0  0  0
    1.3309   -3.0308    0.0000 O   0  0  0  0  0  0  0  0  0  0  0  0
    2.1434   -3.7125    0.0000 C   0  0  0  0  0  0  0  0  0  0  0  0
    2.8579   -4.9500    0.0000 O   0  0  0  0  0  0  0  0  0  0  0  0
    2.1434   -5.3625    0.0000 C   0  0  1  0  0  0  0  0  0  0  0  0
    2.1434   -6.1875    0.0000 C   0  0  0  0  0  0  0  0  0  0  0  0
    1.4289   -6.6000    0.0000 C   0  0  1  0  0  0  0  0  0  0  0  0
    0.7145   -6.1875    0.0000 C   0  0  2  0  0  0  0  0  0  0  0  0
   -0.0000   -6.6000    0.0000 O   0  0  0  0  0  0  0  0  0  0  0  0
    0.7145   -5.3625    0.0000 C   0  0  1  0  0  0  0  0  0  0  0  0
    1.4289   -4.9500    0.0000 O   0  0  0  0  0  0  0  0  0  0  0  0
   -0.0000   -4.9500    0.0000 C   0  0  0  0  0  0  0  0  0  0  0  0
    1.4289   -7.4250    0.0000 N   0  0  0  0  0  0  0  0  0  0  0  0
  1  2  1  0  0  0  0
  2  3  2  0  0  0  0
  3  4  1  0  0  0  0
  4  5  2  0  0  0  0
  5  6  1  0  0  0  0
  6  7  1  0  0  0  0
  7  8  2  0  0  0  0
  8  9  1  0  0  0  0
  9 10  2  0  0  0  0
 10 11  1  0  0  0  0
 11 12  2  0  0  0  0
  7 12  1  0  0  0  0
 12 13  1  0  0  0  0
 13 14  1  0  0  0  0
  5 14  1  0  0  0  0
 14 15  2  0  0  0  0
  2 15  1  0  0  0  0
 15 16  1  0  0  0  0
 13 17  2  0  0  0  0
 11 18  1  0  0  0  0
 18 19  1  0  0  0  0
  6 20  2  0  0  0  0
  4 21  1  0  0  0  0
  3 22  1  0  0  0  0
 22 23  1  0  0  0  0
 23 24  1  6  0  0  0
 24 25  1  0  0  0  0
 25 26  1  0  0  0  0
 24 27  2  0  0  0  0
 23 28  1  1  0  0  0
 23 29  1  0  0  0  0
  1 29  1  0  0  0  0
  1 30  1  1  0  0  0
 31 30  1  1  0  0  0
 31 32  1  0  0  0  0
 32 33  1  0  0  0  0
 33 34  1  0  0  0  0
 34 35  1  6  0  0  0
 34 36  1  0  0  0  0
 36 37  1  0  0  0  0
 31 37  1  0  0  0  0
 36 38  1  6  0  0  0
 33 39  1  6  0  0  0
M  END
>  <Name>
Adriamycin

>  <CAS>
23214-92-8

>  <Formula>
C27H29NO11

>  <MolWt>
543.52 

>  <Bioactivity>
Doxorubicin is an Anthracycline Topoisomerase Inhibitor. The mechanism of action of doxorubicin is as a Topoisomerase Inhibitor. The chemical classification of doxorubicin is Anthracyclines.

>  <Pathways>
DNA Damage/DNA Repair

>  <Target>
Topoisomerase inhibitor

>  <Receptor>
Topoisomerase

>  <Reference>
1. Preissner S, et al. Nucleic Acids Res. 2010 Jan;38(Database issue):D237-43. 

$$$$
T1535
  Mrv1561503291623562D          

 13 12  0  0  0  0            999 V2000
    1.4289   -1.6500    0.0000 C   0  0  0  0  0  0  0  0  0  0  0  0
    0.7145   -2.0625    0.0000 C   0  0  0  0  0  0  0  0  0  0  0  0
   -0.0000   -1.6500    0.0000 C   0  0  0  0  0  0  0  0  0  0  0  0
   -0.0000   -0.8250    0.0000 C   0  0  0  0  0  0  0  0  0  0  0  0
    0.7145   -0.4125    0.0000 C   0  0  0  0  0  0  0  0  0  0  0  0
    1.4289   -0.8250    0.0000 C   0  0  0  0  0  0  0  0  0  0  0  0
    2.1434   -0.4125    0.0000 C   0  0  0  0  0  0  0  0  0  0  0  0
    2.8579   -0.8250    0.0000 C   0  0  0  0  0  0  0  0  0  0  0  0
    3.5724   -0.4125    0.0000 C   0  0  0  0  0  0  0  0  0  0  0  0
    4.2868   -0.8250    0.0000 C   0  0  0  0  0  0  0  0  0  0  0  0
    4.2868   -1.6500    0.0000 O   0  0  0  0  0  0  0  0  0  0  0  0
    5.0013   -0.4125    0.0000 O   0  5  0  0  0  0  0  0  0  0  0  0
    5.7158   -0.0000    0.0000 Na  0  3  0  0  0  0  0  0  0  0  0  0
  1  2  2  0  0  0  0
  2  3  1  0  0  0  0
  3  4  2  0  0  0  0
  4  5  1  0  0  0  0
  5  6  2  0  0  0  0
  1  6  1  0  0  0  0
  6  7  1  0  0  0  0
  7  8  1  0  0  0  0
  8  9  1  0  0  0  0
  9 10  1  0  0  0  0
 10 11  2  0  0  0  0
 10 12  1  0  0  0  0
M  CHG  2  12  -1  13   1
M  END
>  <Name>
Sodium Phenylbutyrate

>  <CAS>
1716-12-7

>  <Formula>
C10H11NaO2

>  <MolWt>
186.18 

>  <Bioactivity>
Sodium Phenylbutyrate is a transcriptional regulators that act by altering chromatin structure via the modulation of HDAC activity.

>  <Pathways>
Chromatin/Epigenetic

>  <Target>
HDAC inhibitor

>  <Receptor>
HDAC

>  <Reference>
1. Burrage LC, et al. Mol Genet Metab. 2014 Sep-Oct;113(1-2):131-5. 

$$$$
7554-65-6
  Mrv1561503291623562D          

  6  6  0  0  0  0            999 V2000
    1.2352    0.6294    0.0000 C   0  0  0  0  0  0  0  0  0  0  0  0
    0.9803   -0.1553    0.0000 N   0  0  0  0  0  0  0  0  0  0  0  0
    0.1553   -0.1553    0.0000 N   0  0  0  0  0  0  0  0  0  0  0  0
   -0.0997    0.6294    0.0000 C   0  0  0  0  0  0  0  0  0  0  0  0
    0.5678    1.1143    0.0000 C   0  0  0  0  0  0  0  0  0  0  0  0
    0.5678    1.9393    0.0000 C   0  0  0  0  0  0  0  0  0  0  0  0
  1  2  2  0  0  0  0
  2  3  1  0  0  0  0
  3  4  1  0  0  0  0
  4  5  2  0  0  0  0
  1  5  1  0  0  0  0
  5  6  1  0  0  0  0
M  END
>  <Name>
4-Methylpyrazole

>  <CAS>
7554-65-6

>  <Formula>
C4H6N2

>  <MolWt>
82.10 

>  <Bioactivity>
Fomepizole is used as an antidote in confirmed or suspected methanol or ethylene glycol poisoning. Fomepizole is a competitive inhibitor of alcohol dehydrogenase, the enzyme that catalyzes the initial steps in the metabolism of ethylene glycol and methanol to their toxic metabolites.


>  <Pathways>
Metabolism

>  <Target>
Dehydrogenase inhibitor;Catalase inhibitor

>  <Receptor>
ADH;Catalase

>  <Reference>
1. Nagata H, et al. Am J Physiol. 1996 Dec;271(6 Pt 1):G1028-33.

$$$$
T1736
  Mrv1561503291623562D          

 34 38  0  0  0  0            999 V2000
    0.1536    1.3672    0.0000 C   0  0  0  0  0  0  0  0  0  0  0  0
   -0.3984    0.7541    0.0000 C   0  0  0  0  0  0  0  0  0  0  0  0
   -0.1435   -0.0305    0.0000 N   0  0  0  0  0  0  0  0  0  0  0  0
   -0.6284   -0.6979    0.0000 N   0  0  0  0  0  0  0  0  0  0  0  0
   -0.1435   -1.3654    0.0000 C   0  0  0  0  0  0  0  0  0  0  0  0
    0.6411   -1.1104    0.0000 C   0  0  0  0  0  0  0  0  0  0  0  0
    0.6411   -0.2854    0.0000 C   0  0  0  0  0  0  0  0  0  0  0  0
    1.3556    0.1271    0.0000 C   0  0  0  0  0  0  0  0  0  0  0  0
    1.3556    0.9521    0.0000 O   0  0  0  0  0  0  0  0  0  0  0  0
    2.0701   -0.2854    0.0000 N   0  0  0  0  0  0  0  0  0  0  0  0
    2.7845    0.1271    0.0000 C   0  0  0  0  0  0  0  0  0  0  0  0
    2.7845    0.9521    0.0000 C   0  0  0  0  0  0  0  0  0  0  0  0
    3.4990    1.3646    0.0000 C   0  0  0  0  0  0  0  0  0  0  0  0
    4.2135    0.9521    0.0000 C   0  0  0  0  0  0  0  0  0  0  0  0
    4.9279    1.3646    0.0000 N   0  0  0  0  0  0  0  0  0  0  0  0
    4.9279    2.1896    0.0000 C   0  0  0  0  0  0  0  0  0  0  0  0
    4.2135    2.6021    0.0000 O   0  0  0  0  0  0  0  0  0  0  0  0
    5.6424    2.6021    0.0000 C   0  0  0  0  0  0  0  0  0  0  0  0
    6.3569    2.1896    0.0000 C   0  0  0  0  0  0  0  0  0  0  0  0
    6.3569    1.3646    0.0000 C   0  0  0  0  0  0  0  0  0  0  0  0
    5.6424    0.9521    0.0000 C   0  0  0  0  0  0  0  0  0  0  0  0
    4.2135    0.1271    0.0000 C   0  0  0  0  0  0  0  0  0  0  0  0
    3.4990   -0.2854    0.0000 C   0  0  0  0  0  0  0  0  0  0  0  0
    2.0701   -1.1104    0.0000 C   0  0  0  0  0  0  0  0  0  0  0  0
    1.3556   -1.5229    0.0000 C   0  0  0  0  0  0  0  0  0  0  0  0
   -0.3984   -2.1500    0.0000 C   0  0  0  0  0  0  0  0  0  0  0  0
    0.1536   -2.7631    0.0000 O   0  0  0  0  0  0  0  0  0  0  0  0
   -1.2054   -2.3215    0.0000 N   0  0  0  0  0  0  0  0  0  0  0  0
   -1.2054    0.9256    0.0000 C   0  0  0  0  0  0  0  0  0  0  0  0
   -1.4604    1.7103    0.0000 C   0  0  0  0  0  0  0  0  0  0  0  0
   -0.9083    2.3234    0.0000 C   0  0  0  0  0  0  0  0  0  0  0  0
   -0.1014    2.1518    0.0000 C   0  0  0  0  0  0  0  0  0  0  0  0
   -1.1633    3.1080    0.0000 O   0  0  0  0  0  0  0  0  0  0  0  0
   -1.9702    3.2795    0.0000 C   0  0  0  0  0  0  0  0  0  0  0  0
  1  2  2  0  0  0  0
  2  3  1  0  0  0  0
  3  4  1  0  0  0  0
  4  5  2  0  0  0  0
  5  6  1  0  0  0  0
  6  7  2  0  0  0  0
  3  7  1  0  0  0  0
  7  8  1  0  0  0  0
  8  9  2  0  0  0  0
  8 10  1  0  0  0  0
 10 11  1  0  0  0  0
 11 12  2  0  0  0  0
 12 13  1  0  0  0  0
 13 14  2  0  0  0  0
 14 15  1  0  0  0  0
 15 16  1  0  0  0  0
 16 17  2  0  0  0  0
 16 18  1  0  0  0  0
 18 19  1  0  0  0  0
 19 20  1  0  0  0  0
 20 21  1  0  0  0  0
 15 21  1  0  0  0  0
 14 22  1  0  0  0  0
 22 23  2  0  0  0  0
 11 23  1  0  0  0  0
 10 24  1  0  0  0  0
 24 25  1  0  0  0  0
  6 25  1  0  0  0  0
  5 26  1  0  0  0  0
 26 27  2  0  0  0  0
 26 28  1  0  0  0  0
  2 29  1  0  0  0  0
 29 30  2  0  0  0  0
 30 31  1  0  0  0  0
 31 32  2  0  0  0  0
  1 32  1  0  0  0  0
 31 33  1  0  0  0  0
 33 34  1  0  0  0  0
M  END
>  <Name>
Apixaban

>  <CAS>
503612-47-3

>  <Formula>
C25H25N5O4

>  <MolWt>
459.50 

>  <Bioactivity>
Apixaban is a highly selective, reversible inhibitor of Factor Xa with Ki of 0.08 nM and 0.17 nM in human and rabbit, respectively.

>  <Pathways>
Angiogenesis

>  <Target>
Factor Xa inhibitor

>  <Receptor>
Factor Xa

>  <Reference>
1. Pinto DJ, et al. J Med Chem. 2007, 50(22), 5339-5356.

$$$$
367514-88-3
  Mrv1561503291623562D          

 37 41  0  0  1  0            999 V2000
   -1.4553    3.3602    0.0000 C   0  0  0  0  0  0  0  0  0  0  0  0
   -0.6707    3.6151    0.0000 C   0  0  0  0  0  0  0  0  0  0  0  0
   -0.4992    4.4221    0.0000 C   0  0  0  0  0  0  0  0  0  0  0  0
   -1.2201    3.9710    0.0000 C   0  0  0  0  0  0  0  0  0  0  0  0
   -2.0684    3.9122    0.0000 C   0  0  0  0  0  0  0  0  0  0  0  0
   -1.8969    4.7192    0.0000 C   0  0  0  0  0  0  0  0  0  0  0  0
   -1.1123    4.9741    0.0000 C   0  0  0  0  0  0  0  0  0  0  0  0
   -0.1858    2.9477    0.0000 C   0  0  0  0  0  0  0  0  0  0  0  0
    0.6392    2.9477    0.0000 O   0  0  0  0  0  0  0  0  0  0  0  0
   -0.6707    2.2802    0.0000 N   0  0  0  0  0  0  0  0  0  0  0  0
   -1.4553    2.5352    0.0000 C   0  0  0  0  0  0  0  0  0  0  0  0
   -2.1228    2.0502    0.0000 O   0  0  0  0  0  0  0  0  0  0  0  0
   -0.4158    1.4956    0.0000 C   0  0  0  0  0  0  0  0  0  0  0  0
   -0.9678    0.8825    0.0000 C   0  0  0  0  0  0  0  0  0  0  0  0
   -0.7128    0.0979    0.0000 C   0  0  0  0  0  0  0  0  0  0  0  0
    0.0941   -0.0736    0.0000 C   0  0  0  0  0  0  0  0  0  0  0  0
    0.3491   -0.8583    0.0000 N   0  0  0  0  0  0  0  0  0  0  0  0
    1.1560   -1.0298    0.0000 C   0  0  0  0  0  0  0  0  0  0  0  0
    1.4110   -1.8144    0.0000 C   0  0  0  0  0  0  0  0  0  0  0  0
    0.8589   -2.4275    0.0000 N   0  0  0  0  0  0  0  0  0  0  0  0
    1.1139   -3.2121    0.0000 C   0  0  0  0  0  0  0  0  0  0  0  0
    0.6290   -3.8796    0.0000 N   0  0  0  0  0  0  0  0  0  0  0  0
    1.1139   -4.5470    0.0000 S   0  0  0  0  0  0  0  0  0  0  0  0
    1.8985   -4.2921    0.0000 C   0  0  0  0  0  0  0  0  0  0  0  0
    1.8985   -3.4671    0.0000 C   0  0  0  0  0  0  0  0  0  0  0  0
    2.6130   -3.0546    0.0000 C   0  0  0  0  0  0  0  0  0  0  0  0
    3.3274   -3.4671    0.0000 C   0  0  0  0  0  0  0  0  0  0  0  0
    3.3274   -4.2921    0.0000 C   0  0  0  0  0  0  0  0  0  0  0  0
    2.6130   -4.7046    0.0000 C   0  0  0  0  0  0  0  0  0  0  0  0
    0.0520   -2.2560    0.0000 C   0  0  0  0  0  0  0  0  0  0  0  0
   -0.2030   -1.4714    0.0000 C   0  0  0  0  0  0  0  0  0  0  0  0
   -1.2649   -0.5152    0.0000 C   0  0  0  0  0  0  0  0  0  0  0  0
   -2.0719   -0.3437    0.0000 C   0  0  0  0  0  0  0  0  0  0  0  0
   -2.3268    0.4409    0.0000 C   0  0  0  0  0  0  0  0  0  0  0  0
   -1.7748    1.0540    0.0000 C   0  0  0  0  0  0  0  0  0  0  0  0
    6.5096    0.0000    0.0000 H   0  3  0  0  0  0  0  0  0  0  0  0
    5.6846    0.0000    0.0000 Cl  0  5  0  0  0  0  0  0  0  0  0  0
  1  2  1  0  0  0  0
  2  3  1  0  0  0  0
  3  4  1  0  0  0  0
  4  5  1  0  0  0  0
  1  5  1  0  0  0  0
  5  6  1  0  0  0  0
  6  7  1  0  0  0  0
  3  7  1  0  0  0  0
  2  8  1  0  0  0  0
  8  9  2  0  0  0  0
  8 10  1  0  0  0  0
 10 11  1  0  0  0  0
  1 11  1  0  0  0  0
 11 12  2  0  0  0  0
 10 13  1  0  0  0  0
 13 14  1  0  0  0  0
 14 15  1  0  0  0  0
 15 16  1  0  0  0  0
 16 17  1  0  0  0  0
 17 18  1  0  0  0  0
 18 19  1  0  0  0  0
 19 20  1  0  0  0  0
 20 21  1  0  0  0  0
 21 22  2  0  0  0  0
 22 23  1  0  0  0  0
 23 24  1  0  0  0  0
 24 25  2  0  0  0  0
 21 25  1  0  0  0  0
 25 26  1  0  0  0  0
 26 27  2  0  0  0  0
 27 28  1  0  0  0  0
 28 29  2  0  0  0  0
 24 29  1  0  0  0  0
 20 30  1  0  0  0  0
 30 31  1  0  0  0  0
 17 31  1  0  0  0  0
 15 32  1  0  0  0  0
 32 33  1  0  0  0  0
 33 34  1  0  0  0  0
 34 35  1  0  0  0  0
 14 35  1  0  0  0  0
M  CHG  2  36   1  37  -1
M  END
>  <Name>
Lurasidone HCl

>  <CAS>
367514-88-3

>  <Formula>
C28H36N4O2S

>  <MolWt>
492.68 

>  <Bioactivity>
Lurasidone is an atypical antipsychotic developed by Dainippon Sumitomo Pharma. It was approved by the U.S. Food and Drug Administration (FDA) for treatment of schizophrenia on October 29, 2010 and is currently pending approval for the treatment of bipolar disorder in the United States. 

>  <Pathways>
Neuroscience

>  <Target>
5-HT Receptor inhibitor

>  <Receptor>
Dopamine D2;5-HT2A;5-HT7;5-HT1A;noradrenaline ?2C

>  <Reference>
1. Murai T, et al. Behav Brain Res. 2014 Mar 15;261:26-30.

$$$$
T1448
  Mrv1561503291623562D          

 33 36  0  0  0  0            999 V2000
    1.8414   -3.7445    0.0000 C   0  0  0  0  0  0  0  0  0  0  0  0
    1.0164   -3.7445    0.0000 C   0  0  0  0  0  0  0  0  0  0  0  0
    0.7615   -2.9599    0.0000 S   0  0  0  0  0  0  0  0  0  0  0  0
    1.4289   -2.4750    0.0000 C   0  0  0  0  0  0  0  0  0  0  0  0
    2.0964   -2.9599    0.0000 N   0  0  0  0  0  0  0  0  0  0  0  0
    1.4289   -1.6500    0.0000 N   0  0  0  0  0  0  0  0  0  0  0  0
    2.1434   -1.2375    0.0000 C   0  0  0  0  0  0  0  0  0  0  0  0
    2.1434   -0.4125    0.0000 C   0  0  0  0  0  0  0  0  0  0  0  0
    2.8579    0.0000    0.0000 C   0  0  0  0  0  0  0  0  0  0  0  0
    3.5724   -0.4125    0.0000 N   0  0  0  0  0  0  0  0  0  0  0  0
    3.5724   -1.2375    0.0000 C   0  0  0  0  0  0  0  0  0  0  0  0
    2.8579   -1.6500    0.0000 N   0  0  0  0  0  0  0  0  0  0  0  0
    4.2868   -1.6500    0.0000 C   0  0  0  0  0  0  0  0  0  0  0  0
    2.8579    0.8250    0.0000 N   0  0  0  0  0  0  0  0  0  0  0  0
    2.1434    1.2375    0.0000 C   0  0  0  0  0  0  0  0  0  0  0  0
    2.1434    2.0625    0.0000 C   0  0  0  0  0  0  0  0  0  0  0  0
    2.8579    2.4750    0.0000 N   0  0  0  0  0  0  0  0  0  0  0  0
    3.5724    2.0625    0.0000 C   0  0  0  0  0  0  0  0  0  0  0  0
    3.5724    1.2375    0.0000 C   0  0  0  0  0  0  0  0  0  0  0  0
    2.8579    3.3000    0.0000 C   0  0  0  0  0  0  0  0  0  0  0  0
    3.5724    3.7125    0.0000 C   0  0  0  0  0  0  0  0  0  0  0  0
    3.5724    4.5375    0.0000 O   0  0  0  0  0  0  0  0  0  0  0  0
    0.5315   -4.4120    0.0000 C   0  0  0  0  0  0  0  0  0  0  0  0
   -0.2890   -4.3257    0.0000 O   0  0  0  0  0  0  0  0  0  0  0  0
    0.8671   -5.1657    0.0000 N   0  0  0  0  0  0  0  0  0  0  0  0
    0.3822   -5.8331    0.0000 C   0  0  0  0  0  0  0  0  0  0  0  0
    0.7177   -6.5868    0.0000 C   0  0  0  0  0  0  0  0  0  0  0  0
    0.2328   -7.2542    0.0000 C   0  0  0  0  0  0  0  0  0  0  0  0
   -0.5877   -7.1680    0.0000 C   0  0  0  0  0  0  0  0  0  0  0  0
   -0.9232   -6.4143    0.0000 C   0  0  0  0  0  0  0  0  0  0  0  0
   -0.4383   -5.7469    0.0000 C   0  0  0  0  0  0  0  0  0  0  0  0
   -0.7739   -4.9932    0.0000 Cl  0  0  0  0  0  0  0  0  0  0  0  0
    1.5382   -6.6730    0.0000 C   0  0  0  0  0  0  0  0  0  0  0  0
  1  2  2  0  0  0  0
  2  3  1  0  0  0  0
  3  4  1  0  0  0  0
  4  5  2  0  0  0  0
  1  5  1  0  0  0  0
  4  6  1  0  0  0  0
  6  7  1  0  0  0  0
  7  8  2  0  0  0  0
  8  9  1  0  0  0  0
  9 10  2  0  0  0  0
 10 11  1  0  0  0  0
 11 12  2  0  0  0  0
  7 12  1  0  0  0  0
 11 13  1  0  0  0  0
  9 14  1  0  0  0  0
 14 15  1  0  0  0  0
 15 16  1  0  0  0  0
 16 17  1  0  0  0  0
 17 18  1  0  0  0  0
 18 19  1  0  0  0  0
 14 19  1  0  0  0  0
 17 20  1  0  0  0  0
 20 21  1  0  0  0  0
 21 22  1  0  0  0  0
  2 23  1  0  0  0  0
 23 24  2  0  0  0  0
 23 25  1  0  0  0  0
 25 26  1  0  0  0  0
 26 27  2  0  0  0  0
 27 28  1  0  0  0  0
 28 29  2  0  0  0  0
 29 30  1  0  0  0  0
 30 31  2  0  0  0  0
 26 31  1  0  0  0  0
 31 32  1  0  0  0  0
 27 33  1  0  0  0  0
M  END
>  <Name>
Dasatinib

>  <CAS>
302962-49-8

>  <Formula>
C22H26ClN7O2S

>  <MolWt>
488.01 

>  <Bioactivity>
Dasatinib is an oral dual BCR/ABL and Src family tyrosine kinase inhibitor approved for use in patients with chronic myelogenous leukemia (CML). The main targets of Dasatinib, are BCRABL, SRC, Ephrins and GFR.

>  <Pathways>
Tyrosine Kinase/Adaptors

>  <Target>
Src inhibitor;Abl inhibitor;c-Kit inhibitor;EPHA antagonist

>  <Receptor>
Src;Abl, Lck, Yes, Fyn;c-Kit; EPHA 2

>  <Reference>
1. O'Hare T, et al. Cancer Res. 2005, 65(11), 4500-4505.

$$$$
13523-86-9
  Mrv1561503291623562D          

 18 19  0  0  0  0            999 V2000
   -3.0294    3.2820    0.0000 C   0  0  0  0  0  0  0  0  0  0  0  0
   -3.8499    3.3682    0.0000 C   0  0  0  0  0  0  0  0  0  0  0  0
   -4.1854    2.6145    0.0000 N   0  0  0  0  0  0  0  0  0  0  0  0
   -3.5724    2.0625    0.0000 C   0  0  0  0  0  0  0  0  0  0  0  0
   -2.8579    2.4750    0.0000 C   0  0  0  0  0  0  0  0  0  0  0  0
   -2.1434    2.0625    0.0000 C   0  0  0  0  0  0  0  0  0  0  0  0
   -2.1434    1.2375    0.0000 C   0  0  0  0  0  0  0  0  0  0  0  0
   -2.8579    0.8250    0.0000 C   0  0  0  0  0  0  0  0  0  0  0  0
   -3.5724    1.2375    0.0000 C   0  0  0  0  0  0  0  0  0  0  0  0
   -1.4289    2.4750    0.0000 O   0  0  0  0  0  0  0  0  0  0  0  0
   -0.7145    2.0625    0.0000 C   0  0  0  0  0  0  0  0  0  0  0  0
    0.0000    2.4750    0.0000 C   0  0  0  0  0  0  0  0  0  0  0  0
    0.7145    2.0625    0.0000 C   0  0  0  0  0  0  0  0  0  0  0  0
    1.4289    2.4750    0.0000 N   0  0  0  0  0  0  0  0  0  0  0  0
    2.1434    2.0625    0.0000 C   0  0  0  0  0  0  0  0  0  0  0  0
    2.8579    2.4750    0.0000 C   0  0  0  0  0  0  0  0  0  0  0  0
    2.1434    1.2375    0.0000 C   0  0  0  0  0  0  0  0  0  0  0  0
    0.0000    3.3000    0.0000 O   0  0  0  0  0  0  0  0  0  0  0  0
  1  2  2  0  0  0  0
  2  3  1  0  0  0  0
  3  4  1  0  0  0  0
  4  5  2  0  0  0  0
  1  5  1  0  0  0  0
  5  6  1  0  0  0  0
  6  7  2  0  0  0  0
  7  8  1  0  0  0  0
  8  9  2  0  0  0  0
  4  9  1  0  0  0  0
  6 10  1  0  0  0  0
 10 11  1  0  0  0  0
 11 12  1  0  0  0  0
 12 13  1  0  0  0  0
 13 14  1  0  0  0  0
 14 15  1  0  0  0  0
 15 16  1  0  0  0  0
 15 17  1  0  0  0  0
 12 18  1  0  0  0  0
M  END
>  <Name>
Pindolol

>  <CAS>
13523-86-9

>  <Formula>
C14H20N2O2

>  <MolWt>
248.32 

>  <Bioactivity>
A moderately lipophilic beta blocker (ADRENERGIC BETA-ANTAGONISTS). It is non-cardioselective and has intrinsic sympathomimetic actions, but little membrane-stabilizing activity. (From Martindale, The Extra Pharmocopoeia, 30th ed, p638)


>  <Pathways>
Neuroscience;GPCR/G protein

>  <Target>
5-HT Receptor antagonist;Adrenergic Receptor agonist

>  <Receptor>
5-HT receptor;Adrenergic receptor

>  <Reference>
1. Joseph SS, et al. Naunyn Schmiedebergs Arch Pharmacol. 2003 Dec;368(6):496-503. 

$$$$
T1067
  Mrv1561503291623562D          

 65 67  0  0  1  0            999 V2000
    0.0687   -0.8590    0.0000 C   0  0  1  0  0  0  0  0  0  0  0  0
    0.4949   -0.1526    0.0000 O   0  0  0  0  0  0  0  0  0  0  0  0
    0.0963    0.5697    0.0000 C   0  0  2  0  0  0  0  0  0  0  0  0
   -0.7285    0.5857    0.0000 C   0  0  1  0  0  0  0  0  0  0  0  0
   -1.1548   -0.1207    0.0000 C   0  0  1  0  0  0  0  0  0  0  0  0
   -1.9796   -0.1047    0.0000 O   0  0  0  0  0  0  0  0  0  0  0  0
   -0.7562   -0.8430    0.0000 C   0  0  0  0  0  0  0  0  0  0  0  0
   -1.1271    1.3080    0.0000 C   0  0  0  0  0  0  0  0  0  0  0  0
   -0.7009    2.0143    0.0000 O   0  0  0  0  0  0  0  0  0  0  0  0
   -1.9520    1.3239    0.0000 O   0  0  0  0  0  0  0  0  0  0  0  0
    0.3294    1.5770    0.0000 C   0  0  0  0  0  0  0  0  0  0  0  0
    0.6924    2.3179    0.0000 C   0  0  1  0  0  0  0  0  0  0  0  0
   -0.0139    2.7441    0.0000 O   0  0  0  0  0  0  0  0  0  0  0  0
    0.0020    3.5689    0.0000 C   0  0  2  0  0  0  0  0  0  0  0  0
    0.7244    3.9675    0.0000 O   0  0  0  0  0  0  0  0  0  0  0  0
    0.7403    4.7924    0.0000 C   0  0  1  0  0  0  0  0  0  0  0  0
    0.0340    5.2186    0.0000 C   0  0  1  0  0  0  0  0  0  0  0  0
    0.0499    6.0435    0.0000 O   0  0  0  0  0  0  0  0  0  0  0  0
   -0.6884    4.8200    0.0000 C   0  0  2  0  0  0  0  0  0  0  0  0
   -1.3947    5.2463    0.0000 N   0  0  0  0  0  0  0  0  0  0  0  0
   -0.7043    3.9952    0.0000 C   0  0  2  0  0  0  0  0  0  0  0  0
   -1.4266    3.5966    0.0000 O   0  0  0  0  0  0  0  0  0  0  0  0
    1.4626    5.1910    0.0000 C   0  0  0  0  0  0  0  0  0  0  0  0
    1.1786    2.9844    0.0000 C   0  0  0  0  0  0  0  0  0  0  0  0
    1.7732    3.5563    0.0000 C   0  0  0  0  0  0  0  0  0  0  0  0
    2.4580    4.0164    0.0000 C   0  0  0  0  0  0  0  0  0  0  0  0
    3.2123    4.3505    0.0000 C   0  0  0  0  0  0  0  0  0  0  0  0
    4.0132    4.5486    0.0000 C   0  0  0  0  0  0  0  0  0  0  0  0
    4.8363    4.6046    0.0000 C   0  0  0  0  0  0  0  0  0  0  0  0
    5.6566    4.5168    0.0000 C   0  0  0  0  0  0  0  0  0  0  0  0
    6.4492    4.2879    0.0000 C   0  0  0  0  0  0  0  0  0  0  0  0
    7.1900    3.9248    0.0000 C   0  0  0  0  0  0  0  0  0  0  0  0
    7.8565    3.4386    0.0000 C   0  0  0  0  0  0  0  0  0  0  0  0
    8.4285    2.8441    0.0000 C   0  0  0  0  0  0  0  0  0  0  0  0
    8.8885    2.1592    0.0000 C   0  0  0  0  0  0  0  0  0  0  0  0
    9.2227    1.4049    0.0000 C   0  0  0  0  0  0  0  0  0  0  0  0
    9.4207    0.6041    0.0000 C   0  0  0  0  0  0  0  0  0  0  0  0
    9.4767   -0.2190    0.0000 C   0  0  1  0  0  0  0  0  0  0  0  0
    9.3889   -1.0393    0.0000 C   0  0  1  0  0  0  0  0  0  0  0  0
   10.1985   -1.1983    0.0000 O   0  0  0  0  0  0  0  0  0  0  0  0
    9.1600   -1.8320    0.0000 C   0  0  2  0  0  0  0  0  0  0  0  0
    8.7970   -2.5728    0.0000 C   0  0  1  0  0  0  0  0  0  0  0  0
    8.3108   -3.2393    0.0000 O   0  0  0  0  0  0  0  0  0  0  0  0
    7.7162   -3.8113    0.0000 C   0  0  0  0  0  0  0  0  0  0  0  0
    8.2342   -4.4534    0.0000 O   0  0  0  0  0  0  0  0  0  0  0  0
    7.0314   -4.2713    0.0000 C   0  0  0  0  0  0  0  0  0  0  0  0
    6.2771   -4.6054    0.0000 C   0  0  2  0  0  0  0  0  0  0  0  0
    6.5442   -5.3860    0.0000 O   0  0  0  0  0  0  0  0  0  0  0  0
    5.4762   -4.8035    0.0000 C   0  0  0  0  0  0  0  0  0  0  0  0
    4.6531   -4.8595    0.0000 C   0  0  2  0  0  0  0  0  0  0  0  0
    4.6372   -5.6843    0.0000 O   0  0  0  0  0  0  0  0  0  0  0  0
    3.8328   -4.7717    0.0000 C   0  0  0  0  0  0  0  0  0  0  0  0
    3.0402   -4.5428    0.0000 C   0  0  0  0  0  0  0  0  0  0  0  0
    2.2994   -4.1797    0.0000 C   0  0  1  0  0  0  0  0  0  0  0  0
    1.8731   -4.8861    0.0000 O   0  0  0  0  0  0  0  0  0  0  0  0
    1.6329   -3.6935    0.0000 C   0  0  2  0  0  0  0  0  0  0  0  0
    1.0904   -4.3151    0.0000 O   0  0  0  0  0  0  0  0  0  0  0  0
    1.0609   -3.0990    0.0000 C   0  0  0  0  0  0  0  0  0  0  0  0
    0.6009   -2.4142    0.0000 C   0  0  2  0  0  0  0  0  0  0  0  0
   -0.1215   -2.8128    0.0000 O   0  0  0  0  0  0  0  0  0  0  0  0
    0.2667   -1.6599    0.0000 C   0  0  0  0  0  0  0  0  0  0  0  0
    9.5033   -2.9990    0.0000 C   0  0  0  0  0  0  0  0  0  0  0  0
    9.9297   -2.1291    0.0000 C   0  0  0  0  0  0  0  0  0  0  0  0
   10.3016   -0.2350    0.0000 C   0  0  0  0  0  0  0  0  0  0  0  0
   -0.4461   -1.5037    0.0000 O   0  0  0  0  0  0  0  0  0  0  0  0
  1  2  1  0  0  0  0
  3  2  1  6  0  0  0
  3  4  1  0  0  0  0
  4  5  1  0  0  0  0
  5  6  1  6  0  0  0
  5  7  1  0  0  0  0
  1  7  1  0  0  0  0
  4  8  1  1  0  0  0
  8  9  1  0  0  0  0
  8 10  2  0  0  0  0
  3 11  1  0  0  0  0
 11 12  1  0  0  0  0
 12 13  1  1  0  0  0
 14 13  1  1  0  0  0
 14 15  1  0  0  0  0
 15 16  1  0  0  0  0
 16 17  1  0  0  0  0
 17 18  1  6  0  0  0
 17 19  1  0  0  0  0
 19 20  1  1  0  0  0
 19 21  1  0  0  0  0
 14 21  1  0  0  0  0
 21 22  1  1  0  0  0
 16 23  1  1  0  0  0
 12 24  1  0  0  0  0
 24 25  2  0  0  0  0
 25 26  1  0  0  0  0
 26 27  2  0  0  0  0
 27 28  1  0  0  0  0
 28 29  2  0  0  0  0
 29 30  1  0  0  0  0
 30 31  2  0  0  0  0
 31 32  1  0  0  0  0
 32 33  2  0  0  0  0
 33 34  1  0  0  0  0
 34 35  2  0  0  0  0
 35 36  1  0  0  0  0
 36 37  2  0  0  0  0
 37 38  1  0  0  0  0
 38 39  1  0  0  0  0
 39 40  1  1  0  0  0
 39 41  1  0  0  0  0
 41 42  1  0  0  0  0
 42 43  1  0  0  0  0
 43 44  1  0  0  0  0
 44 45  2  0  0  0  0
 44 46  1  0  0  0  0
 46 47  1  0  0  0  0
 47 48  1  6  0  0  0
 47 49  1  0  0  0  0
 49 50  1  0  0  0  0
 50 51  1  6  0  0  0
 50 52  1  0  0  0  0
 52 53  1  0  0  0  0
 53 54  1  0  0  0  0
 54 55  1  1  0  0  0
 54 56  1  0  0  0  0
 56 57  1  6  0  0  0
 56 58  1  0  0  0  0
 58 59  1  0  0  0  0
 59 60  1  6  0  0  0
 59 61  1  0  0  0  0
  1 61  1  0  0  0  0
 42 62  1  6  0  0  0
 41 63  1  1  0  0  0
 38 64  1  6  0  0  0
  1 65  1  1  0  0  0
M  END
>  <Name>
Amphotericin B

>  <CAS>
1397-89-3

>  <Formula>
C47H73NO17

>  <MolWt>
924.08 

>  <Bioactivity>
Amphotericin b is a Lipid-based Polyene Antifungal and Polyene Antifungal. The chemical classification of amphotericin b is Polyenes.


>  <Pathways>
Microbiology & Virology

>  <Target>
Antibiotic

>  <Receptor>
Others

>  <Reference>
1. Sau K, et al. J Biol Chem, 2003, 278(39), 37561-37568.

$$$$
T1003
  Mrv1561503291623562D          

 64 67  0  0  1  0            999 V2000
   -0.0000   -2.4750    0.0000 C   0  0  1  0  0  0  0  0  0  0  0  0
    0.7145   -2.8875    0.0000 C   0  0  1  0  0  0  0  0  0  0  0  0
    0.7145   -3.7125    0.0000 C   0  0  2  0  0  0  0  0  0  0  0  0
   -0.0000   -4.1250    0.0000 C   0  0  1  0  0  0  0  0  0  0  0  0
   -0.7145   -3.7125    0.0000 O   0  0  0  0  0  0  0  0  0  0  0  0
   -0.7145   -2.8875    0.0000 C   0  0  2  0  0  0  0  0  0  0  0  0
   -1.4289   -2.4750    0.0000 C   0  0  0  0  0  0  0  0  0  0  0  0
   -0.0000   -4.9500    0.0000 O   0  0  0  0  0  0  0  0  0  0  0  0
   -0.7145   -5.3625    0.0000 C   0  0  1  0  0  0  0  0  0  0  0  0
   -0.7145   -6.1875    0.0000 C   0  0  2  0  0  0  0  0  0  0  0  0
   -0.0000   -6.6000    0.0000 C   0  0  0  0  0  0  0  0  0  0  0  0
   -0.0000   -7.4250    0.0000 C   0  0  2  0  0  0  0  0  0  0  0  0
   -0.7145   -7.8375    0.0000 C   0  0  0  0  0  0  0  0  0  0  0  0
   -1.4289   -7.4250    0.0000 C   0  0  0  0  0  0  0  0  0  0  0  0
   -2.1434   -7.8375    0.0000 C   0  0  0  0  0  0  0  0  0  0  0  0
   -2.8579   -7.4250    0.0000 C   0  0  0  0  0  0  0  0  0  0  0  0
   -3.5724   -7.8375    0.0000 C   0  0  0  0  0  0  0  0  0  0  0  0
   -4.2868   -7.4250    0.0000 C   0  0  1  0  0  0  0  0  0  0  0  0
   -4.2868   -6.6000    0.0000 C   0  0  2  0  0  0  0  0  0  0  0  0
   -3.5724   -6.1875    0.0000 O   0  0  0  0  0  0  0  0  0  0  0  0
   -3.5724   -5.3625    0.0000 C   0  0  0  0  0  0  0  0  0  0  0  0
   -2.8579   -4.9500    0.0000 C   0  0  0  0  0  0  0  0  0  0  0  0
   -2.1434   -5.3625    0.0000 C   0  0  2  0  0  0  0  0  0  0  0  0
   -1.4289   -4.9500    0.0000 C   0  0  2  0  0  0  0  0  0  0  0  0
   -1.4289   -4.1250    0.0000 C   0  0  0  0  0  0  0  0  0  0  0  0
   -2.1434   -6.1875    0.0000 O   0  0  0  0  0  0  0  0  0  0  0  0
   -4.2868   -4.9500    0.0000 O   0  0  0  0  0  0  0  0  0  0  0  0
   -5.0013   -6.1875    0.0000 C   0  0  0  0  0  0  0  0  0  0  0  0
   -5.7158   -6.6000    0.0000 C   0  0  0  0  0  0  0  0  0  0  0  0
   -5.0013   -7.8375    0.0000 C   0  0  0  0  0  0  0  0  0  0  0  0
   -5.0013   -8.6625    0.0000 O   0  0  0  0  0  0  0  0  0  0  0  0
   -5.7158   -9.0750    0.0000 C   0  0  1  0  0  0  0  0  0  0  0  0
   -6.4302   -8.6625    0.0000 C   0  0  1  0  0  0  0  0  0  0  0  0
   -7.1447   -9.0750    0.0000 C   0  0  1  0  0  0  0  0  0  0  0  0
   -7.1447   -9.9000    0.0000 C   0  0  1  0  0  0  0  0  0  0  0  0
   -6.4302  -10.3125    0.0000 C   0  0  2  0  0  0  0  0  0  0  0  0
   -5.7158   -9.9000    0.0000 O   0  0  0  0  0  0  0  0  0  0  0  0
   -6.4302  -11.1375    0.0000 C   0  0  0  0  0  0  0  0  0  0  0  0
   -7.8592  -10.3125    0.0000 O   0  0  0  0  0  0  0  0  0  0  0  0
   -7.8592   -8.6625    0.0000 O   0  0  0  0  0  0  0  0  0  0  0  0
   -8.5737   -9.0750    0.0000 C   0  0  0  0  0  0  0  0  0  0  0  0
   -6.4302   -7.8375    0.0000 O   0  0  0  0  0  0  0  0  0  0  0  0
   -7.1447   -7.4250    0.0000 C   0  0  0  0  0  0  0  0  0  0  0  0
   -2.8579   -6.6000    0.0000 C   0  0  0  0  0  0  0  0  0  0  0  0
   -0.7145   -8.6625    0.0000 O   0  0  0  0  0  0  0  0  0  0  0  0
    0.7145   -7.8375    0.0000 C   0  0  0  0  0  0  0  0  0  0  0  0
   -0.0000   -5.7750    0.0000 C   0  0  0  0  0  0  0  0  0  0  0  0
    0.7145   -6.1875    0.0000 C   0  0  0  0  0  0  0  0  0  0  0  0
    1.4289   -5.7750    0.0000 O   0  0  0  0  0  0  0  0  0  0  0  0
    1.4289   -4.1250    0.0000 O   0  0  0  0  0  0  0  0  0  0  0  0
    1.4289   -2.4750    0.0000 N   0  0  0  0  0  0  0  0  0  0  0  0
    2.1434   -2.8875    0.0000 C   0  0  0  0  0  0  0  0  0  0  0  0
    1.4289   -1.6500    0.0000 C   0  0  0  0  0  0  0  0  0  0  0  0
   -0.0000   -1.6500    0.0000 O   0  0  0  0  0  0  0  0  0  0  0  0
   -0.7145   -1.2375    0.0000 C   0  0  1  0  0  0  0  0  0  0  0  0
   -0.7145   -0.4125    0.0000 C   0  0  0  0  0  0  0  0  0  0  0  0
   -1.4289    0.0000    0.0000 C   0  0  2  0  0  0  0  0  0  0  0  0
   -2.1434   -0.4125    0.0000 C   0  0  2  0  0  0  0  0  0  0  0  0
   -2.1434   -1.2375    0.0000 C   0  0  1  0  0  0  0  0  0  0  0  0
   -1.4289   -1.6500    0.0000 O   0  0  0  0  0  0  0  0  0  0  0  0
   -2.8579   -1.6500    0.0000 C   0  0  0  0  0  0  0  0  0  0  0  0
   -2.8579    0.0000    0.0000 O   0  0  0  0  0  0  0  0  0  0  0  0
   -1.0416    0.7284    0.0000 O   0  0  0  0  0  0  0  0  0  0  0  0
   -1.8163    0.7284    0.0000 C   0  0  0  0  0  0  0  0  0  0  0  0
  1  2  1  0  0  0  0
  2  3  1  0  0  0  0
  3  4  1  0  0  0  0
  4  5  1  0  0  0  0
  5  6  1  0  0  0  0
  1  6  1  0  0  0  0
  6  7  1  6  0  0  0
  4  8  1  6  0  0  0
  9  8  1  1  0  0  0
  9 10  1  0  0  0  0
 10 11  1  0  0  0  0
 11 12  1  0  0  0  0
 12 13  1  0  0  0  0
 13 14  1  0  0  0  0
 14 15  2  0  0  0  0
 15 16  1  0  0  0  0
 16 17  2  0  0  0  0
 17 18  1  0  0  0  0
 18 19  1  0  0  0  0
 19 20  1  0  0  0  0
 20 21  1  0  0  0  0
 21 22  1  0  0  0  0
 22 23  1  0  0  0  0
 23 24  1  0  0  0  0
  9 24  1  0  0  0  0
 24 25  1  6  0  0  0
 23 26  1  6  0  0  0
 21 27  2  0  0  0  0
 19 28  1  1  0  0  0
 28 29  1  0  0  0  0
 18 30  1  6  0  0  0
 30 31  1  0  0  0  0
 32 31  1  6  0  0  0
 32 33  1  0  0  0  0
 33 34  1  0  0  0  0
 34 35  1  0  0  0  0
 35 36  1  0  0  0  0
 36 37  1  0  0  0  0
 32 37  1  0  0  0  0
 36 38  1  6  0  0  0
 35 39  1  1  0  0  0
 34 40  1  1  0  0  0
 40 41  1  0  0  0  0
 33 42  1  1  0  0  0
 42 43  1  0  0  0  0
 16 44  1  0  0  0  0
 13 45  2  0  0  0  0
 12 46  1  1  0  0  0
 10 47  1  6  0  0  0
 47 48  1  0  0  0  0
 48 49  2  0  0  0  0
  3 50  1  1  0  0  0
  2 51  1  6  0  0  0
 51 52  1  0  0  0  0
 51 53  1  0  0  0  0
  1 54  1  1  0  0  0
 55 54  1  6  0  0  0
 55 56  1  0  0  0  0
 56 57  1  0  0  0  0
 57 58  1  0  0  0  0
 58 59  1  0  0  0  0
 59 60  1  0  0  0  0
 55 60  1  0  0  0  0
 59 61  1  1  0  0  0
 58 62  1  6  0  0  0
 57 63  1  6  0  0  0
 57 64  1  1  0  0  0
M  END
>  <Name>
Tylosin

>  <CAS>
1401-69-0

>  <Formula>
C46H77NO17

>  <MolWt>
916.10 

>  <Bioactivity>
Macrolide antibiotic obtained from cultures of Streptomyces fradiae. The drug is effective against many microorganisms in animals but not in humans.


>  <Pathways>
Microbiology & Virology

>  <Target>
Antibacterial

>  <Receptor>
Others

>  <Reference>
1. Kolanovi? BS, et al. J Immunoassay Immunochem. 2014;35(1):37-47. 

$$$$
T0371
  Mrv1561503291623562D          

 37 40  0  0  0  0            999 V2000
   -0.0000    0.0000    0.0000 C   0  0  0  0  0  0  0  0  0  0  0  0
   -0.7145   -0.4125    0.0000 C   0  0  0  0  0  0  0  0  0  0  0  0
   -0.7145   -1.2375    0.0000 C   0  0  0  0  0  0  0  0  0  0  0  0
   -0.0000   -1.6500    0.0000 C   0  0  0  0  0  0  0  0  0  0  0  0
    0.7145   -1.2375    0.0000 C   0  0  0  0  0  0  0  0  0  0  0  0
    0.7145   -0.4125    0.0000 C   0  0  0  0  0  0  0  0  0  0  0  0
    1.4289    0.0000    0.0000 C   0  0  0  0  0  0  0  0  0  0  0  0
    2.1434   -0.4125    0.0000 C   0  0  0  0  0  0  0  0  0  0  0  0
    2.8579    0.0000    0.0000 O   0  0  0  0  0  0  0  0  0  0  0  0
    2.1434   -1.2375    0.0000 N   0  0  0  0  0  0  0  0  0  0  0  0
    1.4289   -1.6500    0.0000 C   0  0  0  0  0  0  0  0  0  0  0  0
    1.4289   -2.4750    0.0000 O   0  0  0  0  0  0  0  0  0  0  0  0
    2.8579   -1.6500    0.0000 C   0  0  0  0  0  0  0  0  0  0  0  0
    3.5724   -1.2375    0.0000 C   0  0  0  0  0  0  0  0  0  0  0  0
    4.2868   -1.6500    0.0000 C   0  0  0  0  0  0  0  0  0  0  0  0
    5.0013   -1.2375    0.0000 C   0  0  0  0  0  0  0  0  0  0  0  0
    5.7158   -1.6500    0.0000 C   0  0  0  0  0  0  0  0  0  0  0  0
    5.7158   -2.4750    0.0000 C   0  0  0  0  0  0  0  0  0  0  0  0
    6.4302   -2.8875    0.0000 S   0  0  0  0  0  0  0  0  0  0  0  0
    7.1447   -3.3000    0.0000 N   0  0  0  0  0  0  0  0  0  0  0  0
    7.1447   -4.1250    0.0000 C   0  0  0  0  0  0  0  0  0  0  0  0
    7.8592   -4.5375    0.0000 N   0  0  0  0  0  0  0  0  0  0  0  0
    7.8592   -5.3625    0.0000 C   0  0  0  0  0  0  0  0  0  0  0  0
    8.5737   -5.7750    0.0000 C   0  0  0  0  0  0  0  0  0  0  0  0
    8.5737   -6.6000    0.0000 C   0  0  0  0  0  0  0  0  0  0  0  0
    7.8592   -7.0125    0.0000 C   0  0  0  0  0  0  0  0  0  0  0  0
    7.1447   -6.6000    0.0000 C   0  0  0  0  0  0  0  0  0  0  0  0
    7.1447   -5.7750    0.0000 C   0  0  0  0  0  0  0  0  0  0  0  0
    6.4302   -4.5375    0.0000 O   0  0  0  0  0  0  0  0  0  0  0  0
    6.8427   -2.1730    0.0000 O   0  0  0  0  0  0  0  0  0  0  0  0
    6.0177   -3.6020    0.0000 O   0  0  0  0  0  0  0  0  0  0  0  0
    5.0013   -2.8875    0.0000 C   0  0  0  0  0  0  0  0  0  0  0  0
    4.2868   -2.4750    0.0000 C   0  0  0  0  0  0  0  0  0  0  0  0
    1.0416    0.7284    0.0000 C   0  0  0  0  0  0  0  0  0  0  0  0
    1.8163    0.7284    0.0000 C   0  0  0  0  0  0  0  0  0  0  0  0
   -1.4289   -1.6500    0.0000 O   0  0  0  0  0  0  0  0  0  0  0  0
   -2.1434   -1.2375    0.0000 C   0  0  0  0  0  0  0  0  0  0  0  0
  1  2  2  0  0  0  0
  2  3  1  0  0  0  0
  3  4  2  0  0  0  0
  4  5  1  0  0  0  0
  5  6  2  0  0  0  0
  1  6  1  0  0  0  0
  6  7  1  0  0  0  0
  7  8  1  0  0  0  0
  8  9  2  0  0  0  0
  8 10  1  0  0  0  0
 10 11  1  0  0  0  0
  5 11  1  0  0  0  0
 11 12  2  0  0  0  0
 10 13  1  0  0  0  0
 13 14  1  0  0  0  0
 14 15  1  0  0  0  0
 15 16  2  0  0  0  0
 16 17  1  0  0  0  0
 17 18  2  0  0  0  0
 18 19  1  0  0  0  0
 19 20  1  0  0  0  0
 20 21  1  0  0  0  0
 21 22  1  0  0  0  0
 22 23  1  0  0  0  0
 23 24  1  0  0  0  0
 24 25  1  0  0  0  0
 25 26  1  0  0  0  0
 26 27  1  0  0  0  0
 27 28  1  0  0  0  0
 23 28  1  0  0  0  0
 21 29  2  0  0  0  0
 19 30  2  0  0  0  0
 19 31  2  0  0  0  0
 18 32  1  0  0  0  0
 32 33  2  0  0  0  0
 15 33  1  0  0  0  0
  7 34  1  0  0  0  0
  7 35  1  0  0  0  0
  3 36  1  0  0  0  0
 36 37  1  0  0  0  0
M  END
>  <Name>
Gliquidone

>  <CAS>
33342-05-1

>  <Formula>
C27H33N3O6S

>  <MolWt>
527.63 

>  <Bioactivity>
Gliquidone is an anti-diabetic drug in the sulfonylurea class. It is used in the treatment of diabetes mellitus type 2. It is an ATP-dependent K+ (KATP) channel blocker. This block causes a depolarization which leads to activation of voltage-dependent Ca channels and Ca2+ influx, and eventually increases insulin release. 

>  <Pathways>
Membrane Transporter/Ion Channel

>  <Target>
Potassium Channel

>  <Receptor>
Potassium Channel

>  <Reference>
1. Angel I, et al. Fundam Clin Pharmacol, 1991, 5(2), 107-115.

$$$$
25990-60-7
  Mrv1561503291623562D          

 10 10  0  0  1  0            999 V2000
    0.7145    1.2375    0.0000 C   0  0  1  0  0  0  0  0  0  0  0  0
    1.4289    0.8250    0.0000 O   0  0  0  0  0  0  0  0  0  0  0  0
    1.4289    0.0000    0.0000 C   0  0  0  0  0  0  0  0  0  0  0  0
    0.7145   -0.4125    0.0000 C   0  0  2  0  0  0  0  0  0  0  0  0
    0.0000   -0.0000    0.0000 C   0  0  1  0  0  0  0  0  0  0  0  0
    0.0000    0.8250    0.0000 C   0  0  1  0  0  0  0  0  0  0  0  0
   -0.7145    1.2375    0.0000 O   0  0  0  0  0  0  0  0  0  0  0  0
   -0.7145   -0.4125    0.0000 O   0  0  0  0  0  0  0  0  0  0  0  0
    0.7145   -1.2375    0.0000 O   0  0  0  0  0  0  0  0  0  0  0  0
    0.7145    2.0625    0.0000 O   0  0  0  0  0  0  0  0  0  0  0  0
  1  2  1  0  0  0  0
  2  3  1  0  0  0  0
  3  4  1  0  0  0  0
  4  5  1  0  0  0  0
  5  6  1  0  0  0  0
  1  6  1  0  0  0  0
  6  7  1  1  0  0  0
  5  8  1  6  0  0  0
  4  9  1  1  0  0  0
  1 10  1  1  0  0  0
M  END
>  <Name>
DL-Xylose

>  <CAS>
25990-60-7

>  <Formula>
C5H10O5

>  <MolWt>
150.13 

>  <Bioactivity>
Xylose is a sugar first isolated from wood.  Xylose is classified as a monosaccharide of the aldopentose type.

>  <Pathways>
Others

>  <Target>
Others

>  <Receptor>
Others

>  <Reference>
1. Buskas T, et al. Glycobiology. 2006 Aug;16(8):113R-136R. 

$$$$
54-71-7
  Mrv1561503291623562D          

 17 16  0  0  1  0            999 V2000
   -0.2557   -0.1603    0.0000 C   0  0  0  0  0  0  0  0  0  0  0  0
   -0.9232   -0.6452    0.0000 C   0  0  0  0  0  0  0  0  0  0  0  0
   -0.6682   -1.4298    0.0000 C   0  0  0  0  0  0  0  0  0  0  0  0
    0.1568   -1.4298    0.0000 O   0  0  0  0  0  0  0  0  0  0  0  0
    0.4117   -0.6452    0.0000 C   0  0  0  0  0  0  0  0  0  0  0  0
   -1.1532   -2.0973    0.0000 O   0  0  0  0  0  0  0  0  0  0  0  0
   -1.7078   -0.3903    0.0000 C   0  0  0  0  0  0  0  0  0  0  0  0
   -2.3209   -0.9423    0.0000 C   0  0  0  0  0  0  0  0  0  0  0  0
   -0.2557    0.6647    0.0000 C   0  0  0  0  0  0  0  0  0  0  0  0
    0.4587    1.0772    0.0000 C   0  0  0  0  0  0  0  0  0  0  0  0
    0.5450    1.8977    0.0000 C   0  0  0  0  0  0  0  0  0  0  0  0
    1.3519    2.0692    0.0000 N   0  0  0  0  0  0  0  0  0  0  0  0
    1.7644    1.3548    0.0000 C   0  0  0  0  0  0  0  0  0  0  0  0
    1.2124    0.7417    0.0000 N   0  0  0  0  0  0  0  0  0  0  0  0
    1.3839   -0.0653    0.0000 C   0  0  0  0  0  0  0  0  0  0  0  0
    4.9466    0.0000    0.0000 H   0  3  0  0  0  0  0  0  0  0  0  0
    4.1216    0.0000    0.0000 Cl  0  5  0  0  0  0  0  0  0  0  0  0
  1  2  1  0  0  0  0
  2  3  1  0  0  0  0
  3  4  1  0  0  0  0
  4  5  1  0  0  0  0
  1  5  1  0  0  0  0
  3  6  2  0  0  0  0
  2  7  1  0  0  0  0
  7  8  1  0  0  0  0
  1  9  1  0  0  0  0
  9 10  1  0  0  0  0
 10 11  2  0  0  0  0
 11 12  1  0  0  0  0
 12 13  2  0  0  0  0
 13 14  1  0  0  0  0
 10 14  1  0  0  0  0
 14 15  1  0  0  0  0
M  CHG  2  16   1  17  -1
M  END
>  <Name>
(+)-Pilocarpine HCl

>  <CAS>
54-71-7

>  <Formula>
C11H16N2O2.HCl

>  <MolWt>
244.72 

>  <Bioactivity>
Pilocarpine HCl is a nonselective muscarinic acetylcholine receptor agonist used to produce an experimental model of epilepsy.

>  <Pathways>
Neuroscience

>  <Target>
AChR antagonist

>  <Receptor>
Muscarinic AChR

>  <Reference>
1. Maslanski JA, et al. Neurosci Lett, 1994, 168(1-2), 225-228.



$$$$
129101-54-8
  Mrv1561503291623562D          

 28 27  0  0  1  0            999 V2000
   -0.9526   -1.3292    0.0000 C   0  0  2  0  0  0  0  0  0  0  0  0
   -1.6671   -1.7417    0.0000 N   0  0  0  0  0  0  0  0  0  0  0  0
   -1.6671   -2.5667    0.0000 C   0  0  0  0  0  0  0  0  0  0  0  0
   -2.3816   -1.3292    0.0000 C   0  0  0  0  0  0  0  0  0  0  0  0
   -0.9526   -0.5042    0.0000 C   0  0  0  0  0  0  0  0  0  0  0  0
   -1.6671   -0.0917    0.0000 C   0  0  0  0  0  0  0  0  0  0  0  0
   -1.6671    0.7333    0.0000 C   0  0  0  0  0  0  0  0  0  0  0  0
   -0.9526    1.1458    0.0000 C   0  0  0  0  0  0  0  0  0  0  0  0
   -0.2382    0.7333    0.0000 C   0  0  0  0  0  0  0  0  0  0  0  0
   -0.2382   -0.0917    0.0000 C   0  0  0  0  0  0  0  0  0  0  0  0
    0.4763    1.1458    0.0000 O   0  0  0  0  0  0  0  0  0  0  0  0
    1.1908    0.7333    0.0000 C   0  0  0  0  0  0  0  0  0  0  0  0
    1.1908   -0.0917    0.0000 O   0  0  0  0  0  0  0  0  0  0  0  0
    1.9053    1.1458    0.0000 N   0  0  0  0  0  0  0  0  0  0  0  0
    2.6197    0.7333    0.0000 C   0  0  0  0  0  0  0  0  0  0  0  0
    3.3342    1.1458    0.0000 C   0  0  0  0  0  0  0  0  0  0  0  0
    1.9053    1.9708    0.0000 C   0  0  0  0  0  0  0  0  0  0  0  0
   -0.2382   -1.7417    0.0000 C   0  0  0  0  0  0  0  0  0  0  0  0
    7.2455    0.2063    0.0000 C   0  0  1  0  0  0  0  0  0  0  0  0
    7.2455    1.0313    0.0000 O   0  0  0  0  0  0  0  0  0  0  0  0
    6.5310   -0.2062    0.0000 C   0  0  2  0  0  0  0  0  0  0  0  0
    6.5310   -1.0312    0.0000 O   0  0  0  0  0  0  0  0  0  0  0  0
    5.8165    0.2063    0.0000 C   0  0  0  0  0  0  0  0  0  0  0  0
    5.1021   -0.2063    0.0000 O   0  0  0  0  0  0  0  0  0  0  0  0
    5.8165    1.0312    0.0000 O   0  0  0  0  0  0  0  0  0  0  0  0
    7.9599   -0.2062    0.0000 C   0  0  0  0  0  0  0  0  0  0  0  0
    8.6744    0.2063    0.0000 O   0  0  0  0  0  0  0  0  0  0  0  0
    7.9599   -1.0312    0.0000 O   0  0  0  0  0  0  0  0  0  0  0  0
  1  2  1  0  0  0  0
  2  3  1  0  0  0  0
  2  4  1  0  0  0  0
  1  5  1  0  0  0  0
  5  6  2  0  0  0  0
  6  7  1  0  0  0  0
  7  8  2  0  0  0  0
  8  9  1  0  0  0  0
  9 10  2  0  0  0  0
  5 10  1  0  0  0  0
  9 11  1  0  0  0  0
 11 12  1  0  0  0  0
 12 13  2  0  0  0  0
 12 14  1  0  0  0  0
 14 15  1  0  0  0  0
 15 16  1  0  0  0  0
 14 17  1  0  0  0  0
  1 18  1  6  0  0  0
 19 20  1  6  0  0  0
 19 21  1  0  0  0  0
 21 22  1  6  0  0  0
 21 23  1  0  0  0  0
 23 24  2  0  0  0  0
 23 25  1  0  0  0  0
 19 26  1  0  0  0  0
 26 27  2  0  0  0  0
 26 28  1  0  0  0  0
M  END
>  <Name>
Rivastigmine tartrate

>  <CAS>
129101-54-8

>  <Formula>
C14H22N2O2.C4H6O6

>  <MolWt>
400.43 

>  <Bioactivity>
Rivastigmine is a parasympathomimetic or cholinergic agent for the treatment of mild to moderate dementia of the Alzheimer's type and dementia due to Parkinson's disease.

>  <Pathways>
Neuroscience

>  <Target>
AChE inhibitor

>  <Receptor>
AChE

>  <Reference>
1. Kennedy JS, et al. J Clin Psychopharmacol. 1999 Dec;19(6):513-21.

$$$$
51-55-8
  Mrv1561503291623562D          

 21 23  0  0  0  0            999 V2000
    0.0040   -1.5432    0.0000 C   0  0  0  0  0  0  0  0  0  0  0  0
    0.0040   -2.3682    0.0000 C   0  0  0  0  0  0  0  0  0  0  0  0
   -0.7105   -2.7807    0.0000 C   0  0  0  0  0  0  0  0  0  0  0  0
   -1.4249   -2.3682    0.0000 C   0  0  0  0  0  0  0  0  0  0  0  0
   -1.4249   -1.5432    0.0000 C   0  0  0  0  0  0  0  0  0  0  0  0
   -0.7105   -1.1307    0.0000 C   0  0  0  0  0  0  0  0  0  0  0  0
   -0.7105   -0.3057    0.0000 C   0  0  0  0  0  0  0  0  0  0  0  0
   -1.4249    0.1068    0.0000 C   0  0  0  0  0  0  0  0  0  0  0  0
   -1.4249    0.9318    0.0000 O   0  0  0  0  0  0  0  0  0  0  0  0
   -2.1394    1.3443    0.0000 C   0  0  0  0  0  0  0  0  0  0  0  0
   -2.0778    2.1670    0.0000 C   0  0  0  0  0  0  0  0  0  0  0  0
   -2.6825    2.7281    0.0000 C   0  0  0  0  0  0  0  0  0  0  0  0
   -3.3466    2.0413    0.0000 N   0  0  0  0  0  0  0  0  0  0  0  0
   -4.0611    2.4538    0.0000 C   0  0  0  0  0  0  0  0  0  0  0  0
   -3.6094    1.1227    0.0000 C   0  0  0  0  0  0  0  0  0  0  0  0
   -2.8211    0.8795    0.0000 C   0  0  0  0  0  0  0  0  0  0  0  0
   -3.9108    1.8907    0.0000 C   0  0  0  0  0  0  0  0  0  0  0  0
   -3.4983    2.6052    0.0000 C   0  0  0  0  0  0  0  0  0  0  0  0
   -2.1394   -0.3057    0.0000 O   0  0  0  0  0  0  0  0  0  0  0  0
    0.0040    0.1068    0.0000 C   0  0  0  0  0  0  0  0  0  0  0  0
    0.7185   -0.3057    0.0000 O   0  0  0  0  0  0  0  0  0  0  0  0
  1  2  2  0  0  0  0
  2  3  1  0  0  0  0
  3  4  2  0  0  0  0
  4  5  1  0  0  0  0
  5  6  2  0  0  0  0
  1  6  1  0  0  0  0
  6  7  1  0  0  0  0
  7  8  1  0  0  0  0
  8  9  1  0  0  0  0
  9 10  1  0  0  0  0
 10 11  1  0  0  0  0
 11 12  1  0  0  0  0
 12 13  1  0  0  0  0
 13 14  1  0  0  0  0
 13 15  1  0  0  0  0
 15 16  1  0  0  0  0
 10 16  1  0  0  0  0
 15 17  1  0  0  0  0
 17 18  1  0  0  0  0
 12 18  1  0  0  0  0
  8 19  2  0  0  0  0
  7 20  1  0  0  0  0
 20 21  1  0  0  0  0
M  END
>  <Name>
Atropine

>  <CAS>
51-55-8

>  <Formula>
C17H23NO3

>  <MolWt>
289.37 

>  <Bioactivity>
Atropine is an antimuscarinic agent and has shown the pharmacological effects because of binding to muscarinic acetylcholine receptors. Atropine, the orthosteric antagonist, has been reported to compete with [3H]-NMS for all muscarinic subtypes with a potency consistent with the high affinities at the mAChR subtypes

>  <Pathways>
Neuroscience

>  <Target>
AChR antagonist

>  <Receptor>
Muscarinic AChR

>  <Reference>
1. Huang XP, et al. J Pharmacol Exp Ther. 1998 Sep; 286(3):1129-39. 

$$$$
55-56-1
  Mrv1561503291623562D          

 34 35  0  0  0  0            999 V2000
   -0.7145   -5.3625    0.0000 C   0  0  0  0  0  0  0  0  0  0  0  0
   -0.7145   -6.1875    0.0000 C   0  0  0  0  0  0  0  0  0  0  0  0
   -0.0000   -6.6000    0.0000 N   0  0  0  0  0  0  0  0  0  0  0  0
    0.7145   -6.1875    0.0000 C   0  0  0  0  0  0  0  0  0  0  0  0
    1.4289   -6.6000    0.0000 N   0  0  0  0  0  0  0  0  0  0  0  0
    2.1434   -6.1875    0.0000 C   0  0  0  0  0  0  0  0  0  0  0  0
    2.8579   -6.6000    0.0000 N   0  0  0  0  0  0  0  0  0  0  0  0
    3.5724   -6.1875    0.0000 C   0  0  0  0  0  0  0  0  0  0  0  0
    4.2868   -6.6000    0.0000 C   0  0  0  0  0  0  0  0  0  0  0  0
    5.0013   -6.1875    0.0000 C   0  0  0  0  0  0  0  0  0  0  0  0
    5.7158   -6.6000    0.0000 C   0  0  0  0  0  0  0  0  0  0  0  0
    6.4302   -6.1875    0.0000 C   0  0  0  0  0  0  0  0  0  0  0  0
    7.1447   -6.6000    0.0000 C   0  0  0  0  0  0  0  0  0  0  0  0
    7.8592   -6.1875    0.0000 N   0  0  0  0  0  0  0  0  0  0  0  0
    8.5737   -6.6000    0.0000 C   0  0  0  0  0  0  0  0  0  0  0  0
    9.2881   -6.1875    0.0000 N   0  0  0  0  0  0  0  0  0  0  0  0
   10.0026   -6.6000    0.0000 C   0  0  0  0  0  0  0  0  0  0  0  0
   10.7171   -6.1875    0.0000 N   0  0  0  0  0  0  0  0  0  0  0  0
   11.4315   -6.6000    0.0000 C   0  0  0  0  0  0  0  0  0  0  0  0
   12.1460   -6.1875    0.0000 C   0  0  0  0  0  0  0  0  0  0  0  0
   12.8605   -6.6000    0.0000 C   0  0  0  0  0  0  0  0  0  0  0  0
   12.8605   -7.4250    0.0000 C   0  0  0  0  0  0  0  0  0  0  0  0
   13.5749   -7.8375    0.0000 Cl  0  0  0  0  0  0  0  0  0  0  0  0
   12.1460   -7.8375    0.0000 C   0  0  0  0  0  0  0  0  0  0  0  0
   11.4315   -7.4250    0.0000 C   0  0  0  0  0  0  0  0  0  0  0  0
   10.0026   -7.4250    0.0000 N   0  0  0  0  0  0  0  0  0  0  0  0
    8.5737   -7.4250    0.0000 N   0  0  0  0  0  0  0  0  0  0  0  0
    2.1434   -5.3625    0.0000 N   0  0  0  0  0  0  0  0  0  0  0  0
    0.7145   -5.3625    0.0000 N   0  0  0  0  0  0  0  0  0  0  0  0
   -1.4289   -6.6000    0.0000 C   0  0  0  0  0  0  0  0  0  0  0  0
   -2.1434   -6.1875    0.0000 C   0  0  0  0  0  0  0  0  0  0  0  0
   -2.1434   -5.3625    0.0000 C   0  0  0  0  0  0  0  0  0  0  0  0
   -1.4289   -4.9500    0.0000 C   0  0  0  0  0  0  0  0  0  0  0  0
   -2.8579   -4.9500    0.0000 Cl  0  0  0  0  0  0  0  0  0  0  0  0
  1  2  2  0  0  0  0
  2  3  1  0  0  0  0
  3  4  1  0  0  0  0
  4  5  2  0  0  0  0
  5  6  1  4  0  0  0
  6  7  2  0  0  0  0
  7  8  1  4  0  0  0
  8  9  1  0  0  0  0
  9 10  1  0  0  0  0
 10 11  1  0  0  0  0
 11 12  1  0  0  0  0
 12 13  1  0  0  0  0
 14 13  1  4  0  0  0
 14 15  2  0  0  0  0
 16 15  1  4  0  0  0
 16 17  2  0  0  0  0
 17 18  1  0  0  0  0
 18 19  1  0  0  0  0
 19 20  2  0  0  0  0
 20 21  1  0  0  0  0
 21 22  2  0  0  0  0
 22 23  1  0  0  0  0
 22 24  1  0  0  0  0
 24 25  2  0  0  0  0
 19 25  1  0  0  0  0
 17 26  1  0  0  0  0
 15 27  1  0  0  0  0
  6 28  1  0  0  0  0
  4 29  1  0  0  0  0
  2 30  1  0  0  0  0
 30 31  2  0  0  0  0
 31 32  1  0  0  0  0
 32 33  2  0  0  0  0
  1 33  1  0  0  0  0
 32 34  1  0  0  0  0
M  END
>  <Name>
Chlorhexidine

>  <CAS>
55-56-1

>  <Formula>
C22H30Cl2N10

>  <MolWt>
505.45 

>  <Bioactivity>
A disinfectant and topical anti-infective agent used also as mouthwash to prevent oral plaque. 

>  <Pathways>
Enzyme

>  <Target>
CAT inhibitor, HNMT inhibitor

>  <Receptor>
CAT, HNMT

>  <Reference>
1. Solov'eva NN, et al. Antibiotiki. 1979 Jun;24(6):436-40. 

$$$$
894-71-3
  Mrv1561503291623562D          

 22 22  0  0  0  0            999 V2000
    0.4125    0.0000    0.0000 H   0  3  0  0  0  0  0  0  0  0  0  0
    7.3428   -1.1115    0.0000 C   0  0  0  0  0  0  0  0  0  0  0  0
    7.9475   -0.5504    0.0000 C   0  0  0  0  0  0  0  0  0  0  0  0
    7.7639    0.2539    0.0000 C   0  0  0  0  0  0  0  0  0  0  0  0
    6.9756    0.4971    0.0000 C   0  0  0  0  0  0  0  0  0  0  0  0
    6.3708   -0.0640    0.0000 C   0  0  0  0  0  0  0  0  0  0  0  0
    6.5544   -0.8684    0.0000 C   0  0  0  0  0  0  0  0  0  0  0  0
    6.0400   -1.5134    0.0000 C   0  0  0  0  0  0  0  0  0  0  0  0
    5.2150   -1.5134    0.0000 C   0  0  0  0  0  0  0  0  0  0  0  0
    4.7006   -0.8684    0.0000 C   0  0  0  0  0  0  0  0  0  0  0  0
    4.8842   -0.0640    0.0000 C   0  0  0  0  0  0  0  0  0  0  0  0
    5.6275    0.2939    0.0000 C   0  0  0  0  0  0  0  0  0  0  0  0
    5.6275    1.1189    0.0000 C   0  0  0  0  0  0  0  0  0  0  0  0
    4.9131    1.5314    0.0000 C   0  0  0  0  0  0  0  0  0  0  0  0
    4.1986    1.1189    0.0000 C   0  0  0  0  0  0  0  0  0  0  0  0
    3.4841    1.5314    0.0000 N   0  0  0  0  0  0  0  0  0  0  0  0
    2.7696    1.1189    0.0000 C   0  0  0  0  0  0  0  0  0  0  0  0
    4.2795    0.4971    0.0000 C   0  0  0  0  0  0  0  0  0  0  0  0
    3.4911    0.2539    0.0000 C   0  0  0  0  0  0  0  0  0  0  0  0
    3.3075   -0.5504    0.0000 C   0  0  0  0  0  0  0  0  0  0  0  0
    3.9123   -1.1115    0.0000 C   0  0  0  0  0  0  0  0  0  0  0  0
   -0.4125    0.0000    0.0000 Cl  0  5  0  0  0  0  0  0  0  0  0  0
  2  3  2  0  0  0  0
  3  4  1  0  0  0  0
  4  5  2  0  0  0  0
  5  6  1  0  0  0  0
  6  7  2  0  0  0  0
  2  7  1  0  0  0  0
  7  8  1  0  0  0  0
  8  9  1  0  0  0  0
  9 10  1  0  0  0  0
 10 11  2  0  0  0  0
 11 12  1  0  0  0  0
  6 12  1  0  0  0  0
 12 13  2  3  0  0  0
 13 14  1  0  0  0  0
 14 15  1  0  0  0  0
 15 16  1  0  0  0  0
 16 17  1  0  0  0  0
 11 18  1  0  0  0  0
 18 19  2  0  0  0  0
 19 20  1  0  0  0  0
 20 21  2  0  0  0  0
 10 21  1  0  0  0  0
M  CHG  2   1   1  22  -1
M  END
>  <Name>
Nortriptyline HCl

>  <CAS>
894-71-3

>  <Formula>
C19H22ClN

>  <MolWt>
299.84 

>  <Bioactivity>
A metabolite of AMITRIPTYLINE that is also used as an antidepressive agent. Nortriptyline is used in major depression, dysthymia, and atypical depressions.  

>  <Pathways>
Neuroscience

>  <Target>
Histamine Receptor antagonist;Adrenergic Receptor;5-HT receptor antagonist;AChR antagonist;Dopamine Receptor

>  <Receptor>
Histamine H1 receptor;Sodium-dependent serotonin transporter;Sodium-dependent noradrenaline transporter; adrenergic receptor;5-HT receptor;Muscarinic AChR;Dopamine receptor

>  <Reference>
1. Joyce PR, et al. Int J Neuropsychopharmacol. 2003 Dec;6(4):339-46.

$$$$
29342-05-0
  Mrv1561503291623562D          

 15 16  0  0  0  0            999 V2000
    0.7145   -0.4125    0.0000 C   0  0  0  0  0  0  0  0  0  0  0  0
    0.7145   -1.2375    0.0000 C   0  0  0  0  0  0  0  0  0  0  0  0
    1.4289   -1.6500    0.0000 C   0  0  0  0  0  0  0  0  0  0  0  0
    1.4289   -2.4750    0.0000 C   0  0  0  0  0  0  0  0  0  0  0  0
    0.7145   -2.8875    0.0000 N   0  0  0  0  0  0  0  0  0  0  0  0
   -0.0000   -2.4750    0.0000 C   0  0  0  0  0  0  0  0  0  0  0  0
   -0.0000   -1.6500    0.0000 C   0  0  0  0  0  0  0  0  0  0  0  0
   -0.7145   -2.8875    0.0000 C   0  0  0  0  0  0  0  0  0  0  0  0
   -0.7145   -3.7125    0.0000 C   0  0  0  0  0  0  0  0  0  0  0  0
   -1.4289   -4.1250    0.0000 C   0  0  0  0  0  0  0  0  0  0  0  0
   -2.1434   -3.7125    0.0000 C   0  0  0  0  0  0  0  0  0  0  0  0
   -2.1434   -2.8875    0.0000 C   0  0  0  0  0  0  0  0  0  0  0  0
   -1.4289   -2.4750    0.0000 C   0  0  0  0  0  0  0  0  0  0  0  0
    0.7145   -3.7125    0.0000 O   0  0  0  0  0  0  0  0  0  0  0  0
    2.1434   -2.8875    0.0000 O   0  0  0  0  0  0  0  0  0  0  0  0
  1  2  1  0  0  0  0
  2  3  2  0  0  0  0
  3  4  1  0  0  0  0
  4  5  1  0  0  0  0
  5  6  1  0  0  0  0
  6  7  2  0  0  0  0
  2  7  1  0  0  0  0
  6  8  1  0  0  0  0
  8  9  1  0  0  0  0
  9 10  1  0  0  0  0
 10 11  1  0  0  0  0
 11 12  1  0  0  0  0
 12 13  1  0  0  0  0
  8 13  1  0  0  0  0
  5 14  1  0  0  0  0
  4 15  2  0  0  0  0
M  END
>  <Name>
Ciclopirox

>  <CAS>
29342-05-0

>  <Formula>
C12H17NO2

>  <MolWt>
207.27 

>  <Bioactivity>
Ciclopirox olamine (used in preparations called Batrafen, Loprox, Mycoster, Penlac and Stieprox) is a synthetic antifungal agent for topical dermatologic treatment of superficial mycoses. It is most useful against Tinea versicolor.  

>  <Pathways>
Membrane Transporter/Ion Channel

>  <Target>
ATPase inhibitor

>  <Receptor>
Na+, K+-ATPase

>  <Reference>
1. Niewerth M, et al. Antimicrob Agents Chemother. 2003 Jun;47(6):1805-17. 

$$$$
T0107
  Mrv1561503291623562D          

 31 35  0  0  1  0            999 V2000
    0.8348   -4.5841    0.0000 C   0  0  1  0  0  0  0  0  0  0  0  0
    1.6557   -4.6657    0.0000 C   0  0  2  0  0  0  0  0  0  0  0  0
    1.9870   -3.9101    0.0000 C   0  0  2  0  0  0  0  0  0  0  0  0
    2.8070   -3.8193    0.0000 C   0  0  1  0  0  0  0  0  0  0  0  0
    3.2957   -4.4840    0.0000 C   0  0  2  0  0  0  0  0  0  0  0  0
    4.1157   -4.3931    0.0000 C   0  0  2  0  0  0  0  0  0  0  0  0
    4.4470   -3.6375    0.0000 C   0  0  0  0  0  0  0  0  0  0  0  0
    5.2669   -3.5467    0.0000 C   0  0  0  0  0  0  0  0  0  0  0  0
    5.7556   -4.2114    0.0000 C   0  0  0  0  0  0  0  0  0  0  0  0
    6.5756   -4.1205    0.0000 O   0  0  0  0  0  0  0  0  0  0  0  0
    5.4243   -4.9669    0.0000 C   0  0  0  0  0  0  0  0  0  0  0  0
    4.6043   -5.0578    0.0000 C   0  0  0  0  0  0  0  0  0  0  0  0
    3.9583   -2.9728    0.0000 C   0  0  0  0  0  0  0  0  0  0  0  0
    3.1383   -3.0637    0.0000 C   0  0  0  0  0  0  0  0  0  0  0  0
    3.7844   -5.1487    0.0000 C   0  0  0  0  0  0  0  0  0  0  0  0
    3.3003   -5.3089    0.0000 F   0  0  0  0  0  0  0  0  0  0  0  0
    2.9644   -5.2395    0.0000 C   0  0  2  0  0  0  0  0  0  0  0  0
    2.1444   -5.3304    0.0000 C   0  0  0  0  0  0  0  0  0  0  0  0
    3.4531   -5.9042    0.0000 O   0  0  0  0  0  0  0  0  0  0  0  0
    1.3708   -3.3615    0.0000 C   0  0  0  0  0  0  0  0  0  0  0  0
    0.6587   -3.7781    0.0000 C   0  0  1  0  0  0  0  0  0  0  0  0
   -0.1623   -3.6965    0.0000 O   0  0  0  0  0  0  0  0  0  0  0  0
   -0.4936   -4.4520    0.0000 C   0  0  0  0  0  0  0  0  0  0  0  0
    0.1226   -5.0006    0.0000 O   0  0  0  0  0  0  0  0  0  0  0  0
   -1.2822   -4.2097    0.0000 C   0  0  0  0  0  0  0  0  0  0  0  0
   -1.1093   -5.0011    0.0000 C   0  0  0  0  0  0  0  0  0  0  0  0
    1.4887   -5.4736    0.0000 C   0  0  0  0  0  0  0  0  0  0  0  0
    1.0108   -5.3901    0.0000 C   0  0  0  0  0  0  0  0  0  0  0  0
    0.4009   -5.9455    0.0000 C   0  0  0  0  0  0  0  0  0  0  0  0
   -0.3852   -5.6950    0.0000 Cl  0  0  0  0  0  0  0  0  0  0  0  0
    1.6810   -5.8712    0.0000 O   0  0  0  0  0  0  0  0  0  0  0  0
  1  2  1  0  0  0  0
  2  3  1  0  0  0  0
  3  4  1  0  0  0  0
  4  5  1  0  0  0  0
  5  6  1  0  0  0  0
  6  7  1  0  0  0  0
  7  8  2  0  0  0  0
  8  9  1  0  0  0  0
  9 10  2  0  0  0  0
  9 11  1  0  0  0  0
 11 12  1  0  0  0  0
  6 12  1  0  0  0  0
  7 13  1  0  0  0  0
 13 14  1  0  0  0  0
  4 14  1  6  0  0  0
  6 15  1  1  0  0  0
  5 16  1  6  0  0  0
  5 17  1  0  0  0  0
 17 18  1  0  0  0  0
  2 18  1  0  0  0  0
 17 19  1  1  0  0  0
  3 20  1  1  0  0  0
 20 21  1  0  0  0  0
  1 21  1  0  0  0  0
 21 22  1  6  0  0  0
 22 23  1  0  0  0  0
 23 24  1  0  0  0  0
  1 24  1  0  0  0  0
 23 25  1  0  0  0  0
 23 26  1  0  0  0  0
  2 27  1  1  0  0  0
  1 28  1  1  0  0  0
 28 29  1  0  0  0  0
 29 30  1  0  0  0  0
 28 31  2  0  0  0  0
M  END
>  <Name>
Halcinonide

>  <CAS>
3093-35-4

>  <Formula>
C24H32ClFO5

>  <MolWt>
454.96 

>  <Bioactivity>
Halcinonide is a high potency corticosteroid used in topical preparations as an anti-inflammatory agent.

>  <Pathways>
Endocrinology/ Hormones

>  <Target>
Glucocorticoid Receptor agonist

>  <Receptor>
Glucocorticoid receptor

>  <Reference>
1. Zhang YD, et al. Am J Surg, 2002, 184(1), 74-77.

$$$$
T0863
  Mrv1561503291623562D          

 17 18  0  0  0  0            999 V2000
    0.7145   -0.4125    0.0000 C   0  0  0  0  0  0  0  0  0  0  0  0
    0.7145   -1.2375    0.0000 C   0  0  0  0  0  0  0  0  0  0  0  0
    1.3819   -1.7224    0.0000 O   0  0  0  0  0  0  0  0  0  0  0  0
    1.1270   -2.5070    0.0000 C   0  0  0  0  0  0  0  0  0  0  0  0
    1.6119   -3.1745    0.0000 N   0  0  0  0  0  0  0  0  0  0  0  0
    2.4324   -3.0882    0.0000 C   0  0  0  0  0  0  0  0  0  0  0  0
    2.9173   -3.7557    0.0000 N   0  0  0  0  0  0  0  0  0  0  0  0
    2.5817   -4.5094    0.0000 C   0  0  0  0  0  0  0  0  0  0  0  0
    3.0667   -5.1768    0.0000 O   0  0  0  0  0  0  0  0  0  0  0  0
    1.7613   -4.5956    0.0000 C   0  0  0  0  0  0  0  0  0  0  0  0
    1.2763   -3.9282    0.0000 C   0  0  0  0  0  0  0  0  0  0  0  0
    1.4257   -5.3493    0.0000 I   0  0  0  0  0  0  0  0  0  0  0  0
    2.7679   -2.3346    0.0000 O   0  0  0  0  0  0  0  0  0  0  0  0
    0.3020   -2.5070    0.0000 C   0  0  0  0  0  0  0  0  0  0  0  0
    0.0470   -1.7224    0.0000 C   0  0  0  0  0  0  0  0  0  0  0  0
   -0.7376   -1.4675    0.0000 O   0  0  0  0  0  0  0  0  0  0  0  0
   -0.0000    0.0000    0.0000 O   0  0  0  0  0  0  0  0  0  0  0  0
  1  2  1  0  0  0  0
  2  3  1  0  0  0  0
  3  4  1  0  0  0  0
  4  5  1  0  0  0  0
  5  6  1  0  0  0  0
  6  7  1  0  0  0  0
  7  8  1  0  0  0  0
  8  9  2  0  0  0  0
  8 10  1  0  0  0  0
 10 11  2  0  0  0  0
  5 11  1  0  0  0  0
 10 12  1  0  0  0  0
  6 13  2  0  0  0  0
  4 14  1  0  0  0  0
 14 15  1  0  0  0  0
  2 15  1  0  0  0  0
 15 16  1  0  0  0  0
  1 17  1  0  0  0  0
M  END
>  <Name>
Dendrid

>  <CAS>
54-42-2

>  <Formula>
C9H11IN2O5

>  <MolWt>
354.10 

>  <Bioactivity>
An analog of deoxyuridine that inhibits viral DNA synthesis. The drug is used as an antiviral agent. 

>  <Pathways>
DNA Damage/DNA Repair

>  <Target>
DNA Synthesis inhibitor

>  <Receptor>
DNA

>  <Reference>
1. Silvestri DL, et al. JAMA. 1982 Aug 27; 248(8):953-9.

$$$$
3562-84-3
  Mrv1561503291623562D          

 22 24  0  0  0  0            999 V2000
    3.2789    1.2375    0.0000 C   0  0  0  0  0  0  0  0  0  0  0  0
    3.9934    0.8250    0.0000 C   0  0  0  0  0  0  0  0  0  0  0  0
    3.9934    0.0000    0.0000 C   0  0  0  0  0  0  0  0  0  0  0  0
    3.2789   -0.4125    0.0000 C   0  0  0  0  0  0  0  0  0  0  0  0
    2.5645   -0.0000    0.0000 C   0  0  0  0  0  0  0  0  0  0  0  0
    2.5645    0.8250    0.0000 C   0  0  0  0  0  0  0  0  0  0  0  0
    1.7798    1.0799    0.0000 C   0  0  0  0  0  0  0  0  0  0  0  0
    1.2949    0.4125    0.0000 C   0  0  0  0  0  0  0  0  0  0  0  0
    1.7798   -0.2549    0.0000 O   0  0  0  0  0  0  0  0  0  0  0  0
    0.4699    0.4125    0.0000 C   0  0  0  0  0  0  0  0  0  0  0  0
    0.0574   -0.3020    0.0000 C   0  0  0  0  0  0  0  0  0  0  0  0
    1.5249    1.8646    0.0000 C   0  0  0  0  0  0  0  0  0  0  0  0
    2.0769    2.4777    0.0000 C   0  0  0  0  0  0  0  0  0  0  0  0
    1.8220    3.2623    0.0000 C   0  0  0  0  0  0  0  0  0  0  0  0
    2.3740    3.8754    0.0000 C   0  0  0  0  0  0  0  0  0  0  0  0
    3.1810    3.7038    0.0000 C   0  0  0  0  0  0  0  0  0  0  0  0
    3.7330    4.3169    0.0000 O   0  0  0  0  0  0  0  0  0  0  0  0
    3.4359    2.9192    0.0000 C   0  0  0  0  0  0  0  0  0  0  0  0
    2.8839    2.3061    0.0000 C   0  0  0  0  0  0  0  0  0  0  0  0
    4.2429    2.7477    0.0000 Br  0  0  0  0  0  0  0  0  0  0  0  0
    2.1191    4.6600    0.0000 Br  0  0  0  0  0  0  0  0  0  0  0  0
    0.7179    2.0361    0.0000 O   0  0  0  0  0  0  0  0  0  0  0  0
  1  2  2  0  0  0  0
  2  3  1  0  0  0  0
  3  4  2  0  0  0  0
  4  5  1  0  0  0  0
  5  6  2  0  0  0  0
  1  6  1  0  0  0  0
  6  7  1  0  0  0  0
  7  8  2  0  0  0  0
  8  9  1  0  0  0  0
  5  9  1  0  0  0  0
  8 10  1  0  0  0  0
 10 11  1  0  0  0  0
  7 12  1  0  0  0  0
 12 13  1  0  0  0  0
 13 14  2  0  0  0  0
 14 15  1  0  0  0  0
 15 16  2  0  0  0  0
 16 17  1  0  0  0  0
 16 18  1  0  0  0  0
 18 19  2  0  0  0  0
 13 19  1  0  0  0  0
 18 20  1  0  0  0  0
 15 21  1  0  0  0  0
 12 22  2  0  0  0  0
M  END
>  <Name>
Benzbromarone

>  <CAS>
3562-84-3

>  <Formula>
C17H12Br2O3

>  <MolWt>
424.08 

>  <Bioactivity>
Uricosuric that acts by increasing uric acid clearance. It is used in the treatment of gout.  

>  <Pathways>
Metabolism

>  <Target>
CYP inhibitor

>  <Receptor>
CYP2C

>  <Reference>
1. McDonald MG, et al. Chem Res Toxicol, 2007, 20(12), 1833-18342.

$$$$
114084-78-5
  Mrv1561503291623562D          

 20 18  0  0  0  0            999 V2000
    0.0000    0.0000    0.0000 Na  0  0  0  0  0  0  0  0  0  0  0  0
    3.7272   -0.2822    0.0000 C   0  0  0  0  0  0  0  0  0  0  0  0
    3.0127    0.1303    0.0000 C   0  0  0  0  0  0  0  0  0  0  0  0
    2.6002   -0.5842    0.0000 P   0  0  0  0  0  0  0  0  0  0  0  0
    2.1877   -1.2987    0.0000 O   0  0  0  0  0  0  0  0  0  0  0  0
    3.3147   -0.9967    0.0000 O   0  0  0  0  0  0  0  0  0  0  0  0
    1.8857   -0.1717    0.0000 O   0  0  0  0  0  0  0  0  0  0  0  0
    3.4252    0.8447    0.0000 P   0  0  0  0  0  0  0  0  0  0  0  0
    2.7107    1.2572    0.0000 O   0  0  0  0  0  0  0  0  0  0  0  0
    3.8377    1.5592    0.0000 O   0  0  0  0  0  0  0  0  0  0  0  0
    4.1397    0.4322    0.0000 O   0  0  0  0  0  0  0  0  0  0  0  0
    2.2982    0.5428    0.0000 O   0  0  0  0  0  0  0  0  0  0  0  0
    4.4416    0.1303    0.0000 C   0  0  0  0  0  0  0  0  0  0  0  0
    5.1561   -0.2822    0.0000 N   0  0  0  0  0  0  0  0  0  0  0  0
    5.8706    0.1303    0.0000 C   0  0  0  0  0  0  0  0  0  0  0  0
    6.5850   -0.2822    0.0000 C   0  0  0  0  0  0  0  0  0  0  0  0
    7.2995    0.1303    0.0000 C   0  0  0  0  0  0  0  0  0  0  0  0
    8.0140   -0.2822    0.0000 C   0  0  0  0  0  0  0  0  0  0  0  0
    8.7285    0.1303    0.0000 C   0  0  0  0  0  0  0  0  0  0  0  0
    5.1561   -1.1072    0.0000 C   0  0  0  0  0  0  0  0  0  0  0  0
  2  3  1  0  0  0  0
  3  4  1  0  0  0  0
  4  5  2  0  0  0  0
  4  6  1  0  0  0  0
  4  7  1  0  0  0  0
  3  8  1  0  0  0  0
  8  9  2  0  0  0  0
  8 10  1  0  0  0  0
  8 11  1  0  0  0  0
  3 12  1  0  0  0  0
  2 13  1  0  0  0  0
 13 14  1  0  0  0  0
 14 15  1  0  0  0  0
 15 16  1  0  0  0  0
 16 17  1  0  0  0  0
 17 18  1  0  0  0  0
 18 19  1  0  0  0  0
 14 20  1  0  0  0  0
M  END
>  <Name>
Ibandronic acid

>  <CAS>
114084-78-5

>  <Formula>
C9H23NO7P2

>  <MolWt>
319.23 

>  <Bioactivity>
Ibandronate is a nitrogen-containing bisphosphonate in the same class as alendronate and risedronate. Ibandronate inhibits osteoclast-mediated bone resorption. All of the bisphosphonates prevent the breakdown of bone by bone cells called osteoclasts. In persons who are at high risk for osteoporosis, bisphosphonates not only result in increased amounts of bone and bone strength, they also reduce the risk of hip fractures and other bone fractures. 

>  <Pathways>
Enzyme

>  <Target>
HAP antagonist;FPPS inhibitor

>  <Receptor>
HAP;FPPS

>  <Reference>
1. Dunford JE, et al. J Pharmacol Exp Ther. 2001 Feb;296(2):235-42. 

$$$$
T1642
  Mrv1561503291623562D          

 19 21  0  0  0  0            999 V2000
    3.2789    1.2375    0.0000 C   0  0  0  0  0  0  0  0  0  0  0  0
    3.9934    0.8250    0.0000 C   0  0  0  0  0  0  0  0  0  0  0  0
    3.9934    0.0000    0.0000 C   0  0  0  0  0  0  0  0  0  0  0  0
    3.2789   -0.4125    0.0000 C   0  0  0  0  0  0  0  0  0  0  0  0
    2.5645   -0.0000    0.0000 C   0  0  0  0  0  0  0  0  0  0  0  0
    2.5645    0.8250    0.0000 C   0  0  0  0  0  0  0  0  0  0  0  0
    1.7798    1.0799    0.0000 C   0  0  0  0  0  0  0  0  0  0  0  0
    1.2949    0.4125    0.0000 N   0  0  0  0  0  0  0  0  0  0  0  0
    0.4699    0.4125    0.0000 C   0  0  0  0  0  0  0  0  0  0  0  0
    0.0574   -0.3020    0.0000 C   0  0  0  0  0  0  0  0  0  0  0  0
   -0.7676   -0.3020    0.0000 N   0  0  0  0  0  0  0  0  0  0  0  0
   -1.1801    0.4125    0.0000 C   0  0  0  0  0  0  0  0  0  0  0  0
   -2.0051    0.4125    0.0000 O   0  0  0  0  0  0  0  0  0  0  0  0
   -0.7676    1.1270    0.0000 C   0  0  0  0  0  0  0  0  0  0  0  0
    0.0574    1.1270    0.0000 C   0  0  0  0  0  0  0  0  0  0  0  0
    0.4699   -1.0164    0.0000 O   0  0  0  0  0  0  0  0  0  0  0  0
    1.7798   -0.2549    0.0000 C   0  0  0  0  0  0  0  0  0  0  0  0
    1.5249    1.8646    0.0000 O   0  0  0  0  0  0  0  0  0  0  0  0
    3.2789   -1.2375    0.0000 N   0  0  0  0  0  0  0  0  0  0  0  0
  1  2  2  0  0  0  0
  2  3  1  0  0  0  0
  3  4  2  0  0  0  0
  4  5  1  0  0  0  0
  5  6  2  0  0  0  0
  1  6  1  0  0  0  0
  6  7  1  0  0  0  0
  7  8  1  0  0  0  0
  8  9  1  0  0  0  0
  9 10  1  0  0  0  0
 10 11  1  0  0  0  0
 11 12  1  0  0  0  0
 12 13  2  0  0  0  0
 12 14  1  0  0  0  0
 14 15  1  0  0  0  0
  9 15  1  0  0  0  0
 10 16  2  0  0  0  0
  8 17  1  0  0  0  0
  5 17  1  0  0  0  0
  7 18  2  0  0  0  0
  4 19  1  0  0  0  0
M  END
>  <Name>
Lenalidomide (CC-5013)

>  <CAS>
191732-72-6

>  <Formula>
C13H13N3O3

>  <MolWt>
259.26 

>  <Bioactivity>
Lenalidomide (initially known as CC-5013 and marketed as Revlimid® by Celgene) is a derivative of thalidomide introduced in 2004. It was initially intended as a treatment for multiple myeloma, for which thalidomide is an accepted therapeutic modality, but has also shown efficacy in the hematological disorders known as the myelodysplastic syndromes.  FDA approved on December 27, 2005.


>  <Pathways>
Immunology/Inflammation

>  <Target>
TNF-alpha inhibitor; Cadherin inhibitor

>  <Receptor>
TNF-?;Cadherin-5;Prostaglandin G/H synthase ;CRBN

>  <Reference>
1. Muller GW, et al. Bioorg Med Chem Lett, 1999, 9(11), 1625-1630.

$$$$
201530-41-8
  Mrv1561503291623562D          

 28 31  0  0  0  0            999 V2000
    1.4289   -0.0000    0.0000 C   0  0  0  0  0  0  0  0  0  0  0  0
    0.7145   -0.4125    0.0000 C   0  0  0  0  0  0  0  0  0  0  0  0
    0.7145   -1.2375    0.0000 N   0  0  0  0  0  0  0  0  0  0  0  0
    1.3819   -1.7224    0.0000 N   0  0  0  0  0  0  0  0  0  0  0  0
    1.1270   -2.5070    0.0000 C   0  0  0  0  0  0  0  0  0  0  0  0
    0.3020   -2.5070    0.0000 N   0  0  0  0  0  0  0  0  0  0  0  0
    0.0470   -1.7224    0.0000 C   0  0  0  0  0  0  0  0  0  0  0  0
   -0.7376   -1.4675    0.0000 C   0  0  0  0  0  0  0  0  0  0  0  0
   -1.3507   -2.0195    0.0000 C   0  0  0  0  0  0  0  0  0  0  0  0
   -1.1792   -2.8265    0.0000 O   0  0  0  0  0  0  0  0  0  0  0  0
   -2.1353   -1.7646    0.0000 C   0  0  0  0  0  0  0  0  0  0  0  0
   -2.3068   -0.9576    0.0000 C   0  0  0  0  0  0  0  0  0  0  0  0
   -1.6937   -0.4056    0.0000 C   0  0  0  0  0  0  0  0  0  0  0  0
   -0.9091   -0.6605    0.0000 C   0  0  0  0  0  0  0  0  0  0  0  0
    1.6119   -3.1745    0.0000 C   0  0  0  0  0  0  0  0  0  0  0  0
    2.4324   -3.0882    0.0000 C   0  0  0  0  0  0  0  0  0  0  0  0
    2.7679   -2.3346    0.0000 O   0  0  0  0  0  0  0  0  0  0  0  0
    2.9173   -3.7557    0.0000 C   0  0  0  0  0  0  0  0  0  0  0  0
    2.5817   -4.5094    0.0000 C   0  0  0  0  0  0  0  0  0  0  0  0
    1.7613   -4.5956    0.0000 C   0  0  0  0  0  0  0  0  0  0  0  0
    1.2763   -3.9282    0.0000 C   0  0  0  0  0  0  0  0  0  0  0  0
   -0.0000    0.0000    0.0000 C   0  0  0  0  0  0  0  0  0  0  0  0
   -0.0000    0.8250    0.0000 C   0  0  0  0  0  0  0  0  0  0  0  0
    0.7145    1.2375    0.0000 C   0  0  0  0  0  0  0  0  0  0  0  0
    1.4289    0.8250    0.0000 C   0  0  0  0  0  0  0  0  0  0  0  0
    0.7145    2.0625    0.0000 C   0  0  0  0  0  0  0  0  0  0  0  0
    0.0000    2.4750    0.0000 O   0  0  0  0  0  0  0  0  0  0  0  0
    1.4289    2.4750    0.0000 O   0  0  0  0  0  0  0  0  0  0  0  0
  1  2  2  0  0  0  0
  2  3  1  0  0  0  0
  3  4  1  0  0  0  0
  4  5  1  0  0  0  0
  5  6  1  0  0  0  0
  6  7  1  0  0  0  0
  3  7  1  0  0  0  0
  7  8  2  0  0  0  0
  8  9  1  0  0  0  0
  9 10  2  0  0  0  0
  9 11  1  0  0  0  0
 11 12  2  0  0  0  0
 12 13  1  0  0  0  0
 13 14  2  0  0  0  0
  8 14  1  0  0  0  0
  5 15  2  0  0  0  0
 15 16  1  0  0  0  0
 16 17  2  0  0  0  0
 16 18  1  0  0  0  0
 18 19  2  0  0  0  0
 19 20  1  0  0  0  0
 20 21  2  0  0  0  0
 15 21  1  0  0  0  0
  2 22  1  0  0  0  0
 22 23  2  0  0  0  0
 23 24  1  0  0  0  0
 24 25  2  0  0  0  0
  1 25  1  0  0  0  0
 24 26  1  0  0  0  0
 26 27  1  0  0  0  0
 26 28  2  0  0  0  0
M  END
>  <Name>
Deferasirox

>  <CAS>
201530-41-8

>  <Formula>
C21H15N3O4

>  <MolWt>
373.36 

>  <Bioactivity>
Deferasirox is an oral iron chelator. Its main use is to reduce chronic iron overload in patients who are receiving long term blood transfusions for conditions such as beta-thalassemia and other chronic anemias. It is the first oral medication approved in the USA for this purpose.


>  <Pathways>
Others

>  <Target>
Chelator

>  <Receptor>
iron

>  <Reference>
1. Wang T, et al. Zhongguo Shi Yan Xue Ye Xue Za Zhi. 2010 Oct;18(5):1359-64.

$$$$
287714-41-4
  Mrv1561503291623562D          

 33 34  0  0  1  0            999 V2000
    3.5724   -1.2375    0.0000 C   0  0  1  0  0  0  0  0  0  0  0  0
    3.5724   -2.0625    0.0000 O   0  0  0  0  0  0  0  0  0  0  0  0
    2.8579   -0.8250    0.0000 C   0  0  0  0  0  0  0  0  0  0  0  0
    2.8579    0.0000    0.0000 C   0  0  0  0  0  0  0  0  0  0  0  0
    2.1434    0.4125    0.0000 C   0  0  0  0  0  0  0  0  0  0  0  0
    1.4289    0.0000    0.0000 C   0  0  0  0  0  0  0  0  0  0  0  0
    0.7145    0.4125    0.0000 N   0  0  0  0  0  0  0  0  0  0  0  0
    0.7145    1.2375    0.0000 C   0  0  0  0  0  0  0  0  0  0  0  0
    1.4289    1.6500    0.0000 N   0  0  0  0  0  0  0  0  0  0  0  0
    2.1434    1.2375    0.0000 C   0  0  0  0  0  0  0  0  0  0  0  0
    2.8579    1.6500    0.0000 C   0  0  0  0  0  0  0  0  0  0  0  0
    2.8579    2.4750    0.0000 C   0  0  0  0  0  0  0  0  0  0  0  0
    3.5724    2.8875    0.0000 C   0  0  0  0  0  0  0  0  0  0  0  0
    4.2868    2.4750    0.0000 C   0  0  0  0  0  0  0  0  0  0  0  0
    5.0013    2.8875    0.0000 F   0  0  0  0  0  0  0  0  0  0  0  0
    4.2868    1.6500    0.0000 C   0  0  0  0  0  0  0  0  0  0  0  0
    3.5724    1.2375    0.0000 C   0  0  0  0  0  0  0  0  0  0  0  0
    0.0000    1.6500    0.0000 N   0  0  0  0  0  0  0  0  0  0  0  0
    0.0000    2.4750    0.0000 S   0  0  0  0  0  0  0  0  0  0  0  0
    0.8250    2.4750    0.0000 O   0  0  0  0  0  0  0  0  0  0  0  0
   -0.8250    2.4750    0.0000 O   0  0  0  0  0  0  0  0  0  0  0  0
    0.0000    3.3000    0.0000 C   0  0  0  0  0  0  0  0  0  0  0  0
   -0.7145    1.2375    0.0000 C   0  0  0  0  0  0  0  0  0  0  0  0
    1.4289   -0.8250    0.0000 C   0  0  0  0  0  0  0  0  0  0  0  0
    0.7145   -1.2375    0.0000 C   0  0  0  0  0  0  0  0  0  0  0  0
    2.1434   -1.2375    0.0000 C   0  0  0  0  0  0  0  0  0  0  0  0
    4.2868   -0.8250    0.0000 C   0  0  0  0  0  0  0  0  0  0  0  0
    5.0013   -1.2375    0.0000 C   0  0  1  0  0  0  0  0  0  0  0  0
    5.0013   -2.0625    0.0000 O   0  0  0  0  0  0  0  0  0  0  0  0
    5.7158   -0.8250    0.0000 C   0  0  0  0  0  0  0  0  0  0  0  0
    6.4302   -1.2375    0.0000 C   0  0  0  0  0  0  0  0  0  0  0  0
    7.1447   -0.8250    0.0000 O   0  0  0  0  0  0  0  0  0  0  0  0
    6.4302   -2.0625    0.0000 O   0  0  0  0  0  0  0  0  0  0  0  0
  1  2  1  1  0  0  0
  1  3  1  0  0  0  0
  3  4  2  0  0  0  0
  4  5  1  0  0  0  0
  5  6  2  0  0  0  0
  6  7  1  0  0  0  0
  7  8  2  0  0  0  0
  8  9  1  0  0  0  0
  9 10  2  0  0  0  0
  5 10  1  0  0  0  0
 10 11  1  0  0  0  0
 11 12  2  0  0  0  0
 12 13  1  0  0  0  0
 13 14  2  0  0  0  0
 14 15  1  0  0  0  0
 14 16  1  0  0  0  0
 16 17  2  0  0  0  0
 11 17  1  0  0  0  0
  8 18  1  0  0  0  0
 18 19  1  0  0  0  0
 19 20  2  0  0  0  0
 19 21  2  0  0  0  0
 19 22  1  0  0  0  0
 18 23  1  0  0  0  0
  6 24  1  0  0  0  0
 24 25  1  0  0  0  0
 24 26  1  0  0  0  0
  1 27  1  0  0  0  0
 27 28  1  0  0  0  0
 28 29  1  6  0  0  0
 28 30  1  0  0  0  0
 30 31  1  0  0  0  0
 31 32  2  0  0  0  0
 31 33  1  0  0  0  0
M  END
>  <Name>
Rosuvastatin

>  <CAS>
287714-41-4

>  <Formula>
C22H26FN3O5S

>  <MolWt>
463.52 

>  <Bioactivity>
Rosuvastatin is an antilipemic agent that competitively inhibits hydroxymethylglutaryl-coenzyme A (HMG-CoA) reductase. HMG-CoA reducuase catalyzes the conversion of HMG-CoA to mevalonic acid, the rate-limiting step in cholesterol biosynthesis. Rosuvastatin belongs to a class of medications called statins and is used to reduce plasma cholesterol levels and prevent cardiovascular disease.


>  <Pathways>
Metabolism

>  <Target>
HMG-CoA Reductase inhibitor

>  <Receptor>
HMG-CoA Reductase

>  <Reference>
1. Watanabe M, et al. Bioorg Med Chem, 1997, 5(2), 437-444.

$$$$
T1605
  Mrv1561503291623562D          

 27 28  0  0  1  0            999 V2000
   -2.0964   -5.4349    0.0000 C   0  0  1  0  0  0  0  0  0  0  0  0
   -1.4289   -4.9500    0.0000 N   0  0  0  0  0  0  0  0  0  0  0  0
   -1.4289   -4.1250    0.0000 C   0  0  0  0  0  0  0  0  0  0  0  0
   -0.7145   -3.7125    0.0000 C   0  0  1  0  0  0  0  0  0  0  0  0
   -0.7145   -2.8875    0.0000 N   0  0  0  0  0  0  0  0  0  0  0  0
   -0.0000   -2.4750    0.0000 C   0  0  1  0  0  0  0  0  0  0  0  0
   -0.0000   -1.6500    0.0000 C   0  0  0  0  0  0  0  0  0  0  0  0
    0.7145   -1.2375    0.0000 C   0  0  0  0  0  0  0  0  0  0  0  0
    0.7145   -0.4125    0.0000 C   0  0  0  0  0  0  0  0  0  0  0  0
   -0.0000    0.0000    0.0000 C   0  0  0  0  0  0  0  0  0  0  0  0
   -0.0000    0.8250    0.0000 C   0  0  0  0  0  0  0  0  0  0  0  0
    0.7145    1.2375    0.0000 C   0  0  0  0  0  0  0  0  0  0  0  0
    1.4289    0.8250    0.0000 C   0  0  0  0  0  0  0  0  0  0  0  0
    1.4289    0.0000    0.0000 C   0  0  0  0  0  0  0  0  0  0  0  0
    0.7145   -2.8875    0.0000 C   0  0  0  0  0  0  0  0  0  0  0  0
    0.7145   -3.7125    0.0000 O   0  0  0  0  0  0  0  0  0  0  0  0
    1.4289   -4.1250    0.0000 C   0  0  0  0  0  0  0  0  0  0  0  0
    1.4289   -4.9500    0.0000 C   0  0  0  0  0  0  0  0  0  0  0  0
    1.4289   -2.4750    0.0000 O   0  0  0  0  0  0  0  0  0  0  0  0
   -0.0000   -4.1250    0.0000 C   0  0  0  0  0  0  0  0  0  0  0  0
   -2.1434   -3.7125    0.0000 O   0  0  0  0  0  0  0  0  0  0  0  0
   -0.7615   -5.4349    0.0000 C   0  0  0  0  0  0  0  0  0  0  0  0
   -1.0164   -6.2195    0.0000 C   0  0  0  0  0  0  0  0  0  0  0  0
   -1.8414   -6.2195    0.0000 C   0  0  0  0  0  0  0  0  0  0  0  0
   -2.8810   -5.1800    0.0000 C   0  0  0  0  0  0  0  0  0  0  0  0
   -3.4941   -5.7320    0.0000 O   0  0  0  0  0  0  0  0  0  0  0  0
   -3.0525   -4.3730    0.0000 O   0  0  0  0  0  0  0  0  0  0  0  0
  1  2  1  0  0  0  0
  2  3  1  0  0  0  0
  3  4  1  0  0  0  0
  4  5  1  0  0  0  0
  6  5  1  1  0  0  0
  6  7  1  0  0  0  0
  7  8  1  0  0  0  0
  8  9  1  0  0  0  0
  9 10  2  0  0  0  0
 10 11  1  0  0  0  0
 11 12  2  0  0  0  0
 12 13  1  0  0  0  0
 13 14  2  0  0  0  0
  9 14  1  0  0  0  0
  6 15  1  0  0  0  0
 15 16  1  0  0  0  0
 16 17  1  0  0  0  0
 17 18  1  0  0  0  0
 15 19  2  0  0  0  0
  4 20  1  1  0  0  0
  3 21  2  0  0  0  0
  2 22  1  0  0  0  0
 22 23  1  0  0  0  0
 23 24  1  0  0  0  0
  1 24  1  0  0  0  0
  1 25  1  1  0  0  0
 25 26  1  0  0  0  0
 25 27  2  0  0  0  0
M  END
>  <Name>
Enalapril

>  <CAS>
75847-73-3

>  <Formula>
C20H28N2O5

>  <MolWt>
376.45 

>  <Bioactivity>
Enalapril is an Angiotensin Converting Enzyme Inhibitor. The mechanism of action of enalapril is as an Angiotensin-converting Enzyme Inhibitor. The physiologic effect of enalapril is by means of Decreased Blood Pressure.


>  <Pathways>
Angiogenesis;Endocrinology/ Hormones

>  <Target>
RAAS inhibitor; ACE inhibitor

>  <Receptor>
MRP1;ACE

>  <Reference>
1. Andujar-Sanchez M, et al. FEBS Lett. 2007 Jul 24;581(18):3449-54. 

$$$$
80-77-3
  Mrv1561503291623562D          

 17 18  0  0  0  0            999 V2000
    1.4289   -1.6500    0.0000 C   0  0  0  0  0  0  0  0  0  0  0  0
    1.4289   -2.4750    0.0000 C   0  0  0  0  0  0  0  0  0  0  0  0
    0.7145   -2.8875    0.0000 C   0  0  0  0  0  0  0  0  0  0  0  0
   -0.0000   -2.4750    0.0000 C   0  0  0  0  0  0  0  0  0  0  0  0
   -0.0000   -1.6500    0.0000 C   0  0  0  0  0  0  0  0  0  0  0  0
    0.7145   -1.2375    0.0000 C   0  0  0  0  0  0  0  0  0  0  0  0
    0.7145   -0.4125    0.0000 C   0  0  0  0  0  0  0  0  0  0  0  0
    0.0000    0.0000    0.0000 S   0  0  0  0  0  0  0  0  0  0  0  0
    0.0000    0.8250    0.0000 C   0  0  0  0  0  0  0  0  0  0  0  0
    0.7145    1.2375    0.0000 C   0  0  0  0  0  0  0  0  0  0  0  0
    1.4289    0.8250    0.0000 C   0  0  0  0  0  0  0  0  0  0  0  0
    1.4289   -0.0000    0.0000 N   0  0  0  0  0  0  0  0  0  0  0  0
    2.1434   -0.4125    0.0000 C   0  0  0  0  0  0  0  0  0  0  0  0
    2.1434    1.2375    0.0000 O   0  0  0  0  0  0  0  0  0  0  0  0
   -0.4372   -0.6996    0.0000 O   0  0  0  0  0  0  0  0  0  0  0  0
   -0.8245   -0.0288    0.0000 O   0  0  0  0  0  0  0  0  0  0  0  0
    0.7145   -3.7125    0.0000 Cl  0  0  0  0  0  0  0  0  0  0  0  0
  1  2  2  0  0  0  0
  2  3  1  0  0  0  0
  3  4  2  0  0  0  0
  4  5  1  0  0  0  0
  5  6  2  0  0  0  0
  1  6  1  0  0  0  0
  6  7  1  0  0  0  0
  7  8  1  0  0  0  0
  8  9  1  0  0  0  0
  9 10  1  0  0  0  0
 10 11  1  0  0  0  0
 11 12  1  0  0  0  0
  7 12  1  0  0  0  0
 12 13  1  0  0  0  0
 11 14  2  0  0  0  0
  8 15  2  0  0  0  0
  8 16  2  0  0  0  0
  3 17  1  0  0  0  0
M  END
>  <Name>
Chlormezanone

>  <CAS>
80-77-3

>  <Formula>
C11H12ClNO3S

>  <MolWt>
273.73 

>  <Bioactivity>
A non-benzodiazepine that is used in the management of anxiety. It has been suggested for use in the treatment of muscle spasm. 

>  <Pathways>
Membrane Transporter/Ion Channel

>  <Target>
Others

>  <Receptor>
Translocator protein

>  <Reference>
1. Overington JP, et al. Nat Rev Drug Discov. 2006 Dec;5(12):993-6. 

$$$$
T1005
  Mrv1561503291623562D          

 28 27  0  0  1  0            999 V2000
    1.4614    0.2005    0.0000 C   0  0  1  0  0  0  0  0  0  0  0  0
    2.2461    0.4555    0.0000 S   0  0  0  0  0  0  0  0  0  0  0  0
    2.7310   -0.2120    0.0000 C   0  0  0  0  0  0  0  0  0  0  0  0
    2.2461   -0.8794    0.0000 C   0  0  1  0  0  0  0  0  0  0  0  0
    1.4614   -0.6245    0.0000 N   0  0  0  0  0  0  0  0  0  0  0  0
    0.6364   -0.6245    0.0000 C   0  0  0  0  0  0  0  0  0  0  0  0
    0.0531   -1.2078    0.0000 O   0  0  0  0  0  0  0  0  0  0  0  0
    0.6364    0.2005    0.0000 C   0  0  1  0  0  0  0  0  0  0  0  0
    0.0531    0.7839    0.0000 N   0  0  0  0  0  0  0  0  0  0  0  0
   -0.7438    0.5704    0.0000 C   0  0  0  0  0  0  0  0  0  0  0  0
   -0.9573   -0.2265    0.0000 O   0  0  0  0  0  0  0  0  0  0  0  0
   -1.3272    1.1537    0.0000 C   0  0  2  0  0  0  0  0  0  0  0  0
   -1.1136    1.9506    0.0000 N   0  0  0  0  0  0  0  0  0  0  0  0
   -2.1241    0.9402    0.0000 C   0  0  0  0  0  0  0  0  0  0  0  0
   -2.3376    0.1433    0.0000 C   0  0  0  0  0  0  0  0  0  0  0  0
   -3.1345   -0.0702    0.0000 C   0  0  0  0  0  0  0  0  0  0  0  0
   -3.7178    0.5132    0.0000 C   0  0  0  0  0  0  0  0  0  0  0  0
   -4.5147    0.2996    0.0000 O   0  0  0  0  0  0  0  0  0  0  0  0
   -3.5043    1.3101    0.0000 C   0  0  0  0  0  0  0  0  0  0  0  0
   -2.7074    1.5236    0.0000 C   0  0  0  0  0  0  0  0  0  0  0  0
    2.5010   -1.6640    0.0000 C   0  0  0  0  0  0  0  0  0  0  0  0
    3.3080   -1.8355    0.0000 O   0  0  0  0  0  0  0  0  0  0  0  0
    1.9490   -2.2771    0.0000 O   0  0  0  0  0  0  0  0  0  0  0  0
    3.4497    0.1930    0.0000 C   0  0  0  0  0  0  0  0  0  0  0  0
    3.4497   -0.6169    0.0000 C   0  0  0  0  0  0  0  0  0  0  0  0
    5.8069    0.0000    0.0000 O   0  0  0  0  0  0  0  0  0  0  0  0
    0.0000   -3.9271    0.0000 O   0  0  0  0  0  0  0  0  0  0  0  0
    2.3571   -3.9271    0.0000 O   0  0  0  0  0  0  0  0  0  0  0  0
  1  2  1  0  0  0  0
  2  3  1  0  0  0  0
  3  4  1  0  0  0  0
  4  5  1  0  0  0  0
  1  5  1  1  0  0  0
  5  6  1  0  0  0  0
  6  7  2  0  0  0  0
  6  8  1  0  0  0  0
  1  8  1  0  0  0  0
  8  9  1  1  0  0  0
  9 10  1  0  0  0  0
 10 11  2  0  0  0  0
 10 12  1  0  0  0  0
 12 13  1  1  0  0  0
 12 14  1  0  0  0  0
 14 15  2  0  0  0  0
 15 16  1  0  0  0  0
 16 17  2  0  0  0  0
 17 18  1  0  0  0  0
 17 19  1  0  0  0  0
 19 20  2  0  0  0  0
 14 20  1  0  0  0  0
  4 21  1  6  0  0  0
 21 22  2  0  0  0  0
 21 23  1  0  0  0  0
  3 24  1  0  0  0  0
  3 25  1  0  0  0  0
M  END
>  <Name>
Amoxicillin

>  <CAS>
26787-78-0

>  <Formula>
C16H19N3O5S

>  <MolWt>
365.40 

>  <Bioactivity>
A broad-spectrum semisynthetic antibiotic similar to AMPICILLIN except that its resistance to gastric acid permits higher serum levels with oral administration. 

>  <Pathways>
Microbiology & Virology

>  <Target>
Antibiotic

>  <Receptor>
Others

>  <Reference>
1. Yawalkar N, et al. J Invest Dermatol, 2000, 115(4), 647-652.


$$$$
518-34-3
  Mrv1561503291623562D          

 46 52  0  0  1  0            999 V2000
    9.4045    1.5972    0.0000 C   0  0  2  0  0  0  0  0  0  0  0  0
    9.6769    2.3904    0.0000 N   0  0  0  0  0  0  0  0  0  0  0  0
   10.4757    2.5983    0.0000 C   0  0  0  0  0  0  0  0  0  0  0  0
   11.0519    2.0044    0.0000 C   0  0  0  0  0  0  0  0  0  0  0  0
   10.8305    1.1966    0.0000 C   0  0  0  0  0  0  0  0  0  0  0  0
   11.4817    0.6693    0.0000 C   0  0  0  0  0  0  0  0  0  0  0  0
   11.3595   -0.1487    0.0000 C   0  0  0  0  0  0  0  0  0  0  0  0
   10.5919   -0.4486    0.0000 C   0  0  0  0  0  0  0  0  0  0  0  0
   10.4833   -1.2664    0.0000 O   0  0  0  0  0  0  0  0  0  0  0  0
   11.1372   -1.7694    0.0000 C   0  0  0  0  0  0  0  0  0  0  0  0
    9.9193    0.0485    0.0000 C   0  0  0  0  0  0  0  0  0  0  0  0
   10.0238    0.9407    0.0000 C   0  0  0  0  0  0  0  0  0  0  0  0
    9.5320   -0.7575    0.0000 O   0  0  0  0  0  0  0  0  0  0  0  0
    8.7677   -1.1919    0.0000 C   0  0  0  0  0  0  0  0  0  0  0  0
    8.7811   -0.3665    0.0000 C   0  0  0  0  0  0  0  0  0  0  0  0
    9.5222   -0.0041    0.0000 O   0  0  0  0  0  0  0  0  0  0  0  0
    9.5789    0.8189    0.0000 C   0  0  0  0  0  0  0  0  0  0  0  0
    8.1402    0.1156    0.0000 C   0  0  0  0  0  0  0  0  0  0  0  0
    7.4525   -0.3014    0.0000 C   0  0  0  0  0  0  0  0  0  0  0  0
    7.2359   -1.1086    0.0000 C   0  0  0  0  0  0  0  0  0  0  0  0
    7.9793   -1.5527    0.0000 C   0  0  0  0  0  0  0  0  0  0  0  0
    6.3384   -1.2275    0.0000 C   0  0  1  0  0  0  0  0  0  0  0  0
    5.9485   -0.5379    0.0000 N   0  0  0  0  0  0  0  0  0  0  0  0
    6.2564    0.2336    0.0000 C   0  0  0  0  0  0  0  0  0  0  0  0
    7.0357    0.3769    0.0000 C   0  0  0  0  0  0  0  0  0  0  0  0
    5.1253   -0.5935    0.0000 C   0  0  0  0  0  0  0  0  0  0  0  0
    5.4114   -1.1738    0.0000 C   0  0  0  0  0  0  0  0  0  0  0  0
    4.7611   -0.5295    0.0000 C   0  0  0  0  0  0  0  0  0  0  0  0
    5.3939   -0.0246    0.0000 C   0  0  0  0  0  0  0  0  0  0  0  0
    5.4354    0.7957    0.0000 C   0  0  0  0  0  0  0  0  0  0  0  0
    4.7775    1.2624    0.0000 C   0  0  0  0  0  0  0  0  0  0  0  0
    5.4180    1.9004    0.0000 O   0  0  0  0  0  0  0  0  0  0  0  0
    6.2065    2.3132    0.0000 C   0  0  0  0  0  0  0  0  0  0  0  0
    6.2483    3.1548    0.0000 C   0  0  0  0  0  0  0  0  0  0  0  0
    5.5351    3.5695    0.0000 O   0  0  0  0  0  0  0  0  0  0  0  0
    5.5377    4.3945    0.0000 C   0  0  0  0  0  0  0  0  0  0  0  0
    6.9495    3.6011    0.0000 C   0  0  0  0  0  0  0  0  0  0  0  0
    7.6827    3.1985    0.0000 C   0  0  0  0  0  0  0  0  0  0  0  0
    7.7565    2.3548    0.0000 C   0  0  0  0  0  0  0  0  0  0  0  0
    6.9906    1.9795    0.0000 C   0  0  0  0  0  0  0  0  0  0  0  0
    8.5671    1.9588    0.0000 C   0  0  0  0  0  0  0  0  0  0  0  0
    4.0455    0.8002    0.0000 C   0  0  0  0  0  0  0  0  0  0  0  0
    4.0450   -0.0463    0.0000 C   0  0  0  0  0  0  0  0  0  0  0  0
   12.0045   -0.6631    0.0000 O   0  0  0  0  0  0  0  0  0  0  0  0
   12.7725   -0.3618    0.0000 C   0  0  0  0  0  0  0  0  0  0  0  0
    9.1161    2.9955    0.0000 C   0  0  0  0  0  0  0  0  0  0  0  0
  1  2  1  6  0  0  0
  2  3  1  0  0  0  0
  3  4  1  0  0  0  0
  4  5  1  0  0  0  0
  5  6  2  0  0  0  0
  6  7  1  0  0  0  0
  7  8  2  0  0  0  0
  8  9  1  0  0  0  0
  9 10  1  0  0  0  0
  8 11  1  0  0  0  0
 11 12  2  0  0  0  0
  1 12  1  0  0  0  0
  5 12  1  0  0  0  0
 11 13  1  0  0  0  0
 13 14  1  0  0  0  0
 14 15  2  0  0  0  0
 15 16  1  0  0  0  0
 16 17  1  0  0  0  0
 15 18  1  0  0  0  0
 18 19  2  0  0  0  0
 19 20  1  0  0  0  0
 20 21  2  0  0  0  0
 14 21  1  0  0  0  0
 20 22  1  0  0  0  0
 22 23  1  1  0  0  0
 23 24  1  0  0  0  0
 24 25  1  0  0  0  0
 19 25  1  0  0  0  0
 23 26  1  0  0  0  0
 22 27  1  0  0  0  0
 27 28  1  0  0  0  0
 28 29  2  0  0  0  0
 29 30  1  0  0  0  0
 30 31  2  0  0  0  0
 31 32  1  0  0  0  0
 32 33  1  0  0  0  0
 33 34  2  0  0  0  0
 34 35  1  0  0  0  0
 35 36  1  0  0  0  0
 34 37  1  0  0  0  0
 37 38  2  0  0  0  0
 38 39  1  0  0  0  0
 39 40  2  0  0  0  0
 33 40  1  0  0  0  0
 39 41  1  0  0  0  0
  1 41  1  0  0  0  0
 31 42  1  0  0  0  0
 42 43  2  0  0  0  0
 28 43  1  0  0  0  0
  7 44  1  0  0  0  0
 44 45  1  0  0  0  0
  2 46  1  0  0  0  0
M  END
>  <Name>
Tetrandrine

>  <CAS>
518-34-3

>  <Formula>
C38H42N2O6

>  <MolWt>
622.77 

>  <Bioactivity>
Tetrandrine, a bis-benzylisoquinoline alkaloid derived from Stephania tetrandra, is a calcium channel blocker.

>  <Pathways>
Membrane Transporter/Ion Channel

>  <Target>
Calcium Channel inhibitor

>  <Receptor>
Calcium Channel

>  <Reference>
1. Wang G, et al. Pflugers Arch, 1992, 421(6), 558-565.

$$$$
138-14-7
  Mrv1561503291623562D          

 44 42  0  0  0  0            999 V2000
    2.5648   -0.2115    0.0000 C   0  0  0  0  0  0  0  0  0  0  0  0
    1.8503    0.2010    0.0000 C   0  0  0  0  0  0  0  0  0  0  0  0
    1.1358   -0.2115    0.0000 N   0  0  0  0  0  0  0  0  0  0  0  0
    0.4214    0.2010    0.0000 C   0  0  0  0  0  0  0  0  0  0  0  0
   -0.2931   -0.2115    0.0000 C   0  0  0  0  0  0  0  0  0  0  0  0
   -1.0076    0.2010    0.0000 C   0  0  0  0  0  0  0  0  0  0  0  0
   -1.7221   -0.2115    0.0000 C   0  0  0  0  0  0  0  0  0  0  0  0
   -2.4365    0.2010    0.0000 C   0  0  0  0  0  0  0  0  0  0  0  0
   -3.1510   -0.2115    0.0000 N   0  0  0  0  0  0  0  0  0  0  0  0
   -3.8655    0.2010    0.0000 C   0  0  0  0  0  0  0  0  0  0  0  0
   -4.5799   -0.2115    0.0000 C   0  0  0  0  0  0  0  0  0  0  0  0
   -5.2944    0.2010    0.0000 C   0  0  0  0  0  0  0  0  0  0  0  0
   -6.0089   -0.2115    0.0000 C   0  0  0  0  0  0  0  0  0  0  0  0
   -6.7234    0.2010    0.0000 N   0  0  0  0  0  0  0  0  0  0  0  0
   -7.4378   -0.2115    0.0000 C   0  0  0  0  0  0  0  0  0  0  0  0
   -8.1523    0.2010    0.0000 C   0  0  0  0  0  0  0  0  0  0  0  0
   -8.8668   -0.2115    0.0000 C   0  0  0  0  0  0  0  0  0  0  0  0
   -9.5812    0.2010    0.0000 C   0  0  0  0  0  0  0  0  0  0  0  0
  -10.2957   -0.2115    0.0000 C   0  0  0  0  0  0  0  0  0  0  0  0
  -11.0102    0.2010    0.0000 N   0  0  0  0  0  0  0  0  0  0  0  0
   -6.7234    1.0260    0.0000 O   0  0  0  0  0  0  0  0  0  0  0  0
   -6.0089   -1.0365    0.0000 O   0  0  0  0  0  0  0  0  0  0  0  0
   -3.8655    1.0260    0.0000 O   0  0  0  0  0  0  0  0  0  0  0  0
    1.1358   -1.0365    0.0000 O   0  0  0  0  0  0  0  0  0  0  0  0
    1.8503    1.0260    0.0000 O   0  0  0  0  0  0  0  0  0  0  0  0
    3.2792    0.2010    0.0000 C   0  0  0  0  0  0  0  0  0  0  0  0
    3.9937   -0.2115    0.0000 C   0  0  0  0  0  0  0  0  0  0  0  0
    4.7082    0.2010    0.0000 N   0  0  0  0  0  0  0  0  0  0  0  0
    5.4227   -0.2115    0.0000 C   0  0  0  0  0  0  0  0  0  0  0  0
    6.1371    0.2010    0.0000 C   0  0  0  0  0  0  0  0  0  0  0  0
    6.8516   -0.2115    0.0000 C   0  0  0  0  0  0  0  0  0  0  0  0
    7.5661    0.2010    0.0000 C   0  0  0  0  0  0  0  0  0  0  0  0
    8.2805   -0.2115    0.0000 C   0  0  0  0  0  0  0  0  0  0  0  0
    8.9950    0.2010    0.0000 N   0  0  0  0  0  0  0  0  0  0  0  0
    9.7095   -0.2115    0.0000 C   0  0  0  0  0  0  0  0  0  0  0  0
   10.4239    0.2010    0.0000 C   0  0  0  0  0  0  0  0  0  0  0  0
    9.7095   -1.0365    0.0000 O   0  0  0  0  0  0  0  0  0  0  0  0
    8.9950    1.0260    0.0000 O   0  0  0  0  0  0  0  0  0  0  0  0
    3.9937   -1.0365    0.0000 O   0  0  0  0  0  0  0  0  0  0  0  0
   13.0168   -0.8250    0.0000 C   0  0  0  0  0  0  0  0  0  0  0  0
   13.0168    0.0000    0.0000 S   0  0  0  0  0  0  0  0  0  0  0  0
   13.0168    0.8250    0.0000 O   0  0  0  0  0  0  0  0  0  0  0  0
   13.8418   -0.0000    0.0000 O   0  0  0  0  0  0  0  0  0  0  0  0
   12.1918    0.0000    0.0000 O   0  0  0  0  0  0  0  0  0  0  0  0
  1  2  1  0  0  0  0
  2  3  1  0  0  0  0
  3  4  1  0  0  0  0
  4  5  1  0  0  0  0
  5  6  1  0  0  0  0
  6  7  1  0  0  0  0
  7  8  1  0  0  0  0
  8  9  1  0  0  0  0
  9 10  1  0  0  0  0
 10 11  1  0  0  0  0
 11 12  1  0  0  0  0
 12 13  1  0  0  0  0
 13 14  1  0  0  0  0
 14 15  1  0  0  0  0
 15 16  1  0  0  0  0
 16 17  1  0  0  0  0
 17 18  1  0  0  0  0
 18 19  1  0  0  0  0
 19 20  1  0  0  0  0
 14 21  1  0  0  0  0
 13 22  2  0  0  0  0
 10 23  2  0  0  0  0
  3 24  1  0  0  0  0
  2 25  2  0  0  0  0
  1 26  1  0  0  0  0
 26 27  1  0  0  0  0
 27 28  1  0  0  0  0
 28 29  1  0  0  0  0
 29 30  1  0  0  0  0
 30 31  1  0  0  0  0
 31 32  1  0  0  0  0
 32 33  1  0  0  0  0
 33 34  1  0  0  0  0
 34 35  1  0  0  0  0
 35 36  1  0  0  0  0
 35 37  2  0  0  0  0
 34 38  1  0  0  0  0
 27 39  2  0  0  0  0
 40 41  1  0  0  0  0
 41 42  1  0  0  0  0
 41 43  2  0  0  0  0
 41 44  2  0  0  0  0
M  END
>  <Name>
Deferoxamine Mesylate

>  <CAS>
138-14-7

>  <Formula>
C26H52N6O11S

>  <MolWt>
656.79 

>  <Bioactivity>
Natural product isolated from Streptomyces pilosus. Deferoxamine mesylate forms iron complexes and is used as a chelating agent, particularly in the mesylate form.


>  <Pathways>
Others

>  <Target>
Chelator

>  <Receptor>
Iron,  Aluminum

>  <Reference>
1. Elihu N, et al. J Clin Pharmacol. 1998 Feb;38(2):101-5.

$$$$
164579-32-2
  Mrv1561503291623562D          

 28 28  0  0  0  0            999 V2000
    2.0914    0.2669    0.0000 C   0  0  0  0  0  0  0  0  0  0  0  0
    2.8058   -0.1456    0.0000 C   0  0  0  0  0  0  0  0  0  0  0  0
    3.5203    0.2669    0.0000 O   0  0  0  0  0  0  0  0  0  0  0  0
    4.2348   -0.1456    0.0000 C   0  0  0  0  0  0  0  0  0  0  0  0
    4.9493    0.2669    0.0000 F   0  0  0  0  0  0  0  0  0  0  0  0
    4.2348   -0.9706    0.0000 F   0  0  0  0  0  0  0  0  0  0  0  0
    2.8058   -0.9706    0.0000 C   0  0  0  0  0  0  0  0  0  0  0  0
    2.0914   -1.3831    0.0000 C   0  0  0  0  0  0  0  0  0  0  0  0
    1.3769   -0.9706    0.0000 C   0  0  0  0  0  0  0  0  0  0  0  0
    1.3769   -0.1456    0.0000 C   0  0  0  0  0  0  0  0  0  0  0  0
    0.5923    0.1093    0.0000 N   0  0  0  0  0  0  0  0  0  0  0  0
    0.1074   -0.5581    0.0000 C   0  0  0  0  0  0  0  0  0  0  0  0
   -0.7176   -0.5581    0.0000 S   0  0  0  0  0  0  0  0  0  0  0  0
   -1.1301   -1.2726    0.0000 O   0  0  0  0  0  0  0  0  0  0  0  0
   -1.1301    0.1564    0.0000 C   0  0  0  0  0  0  0  0  0  0  0  0
   -1.9551    0.1564    0.0000 C   0  0  0  0  0  0  0  0  0  0  0  0
   -2.3676   -0.5581    0.0000 N   0  0  0  0  0  0  0  0  0  0  0  0
   -3.1926   -0.5581    0.0000 C   0  0  0  0  0  0  0  0  0  0  0  0
   -3.6051    0.1564    0.0000 C   0  0  0  0  0  0  0  0  0  0  0  0
   -3.1926    0.8708    0.0000 C   0  0  0  0  0  0  0  0  0  0  0  0
   -2.3676    0.8708    0.0000 C   0  0  0  0  0  0  0  0  0  0  0  0
   -1.9551    1.5853    0.0000 O   0  0  0  0  0  0  0  0  0  0  0  0
   -1.1301    1.5853    0.0000 C   0  0  0  0  0  0  0  0  0  0  0  0
   -3.6051    1.5853    0.0000 O   0  0  0  0  0  0  0  0  0  0  0  0
   -4.4301    1.5853    0.0000 C   0  0  0  0  0  0  0  0  0  0  0  0
    0.5923   -1.2255    0.0000 N   0  5  0  0  0  0  0  0  0  0  0  0
    7.3064    0.0000    0.0000 Na  0  3  0  0  0  0  0  0  0  0  0  0
    0.0000   -3.0331    0.0000 O   0  0  0  0  0  0  0  0  0  0  0  0
  1  2  2  0  0  0  0
  2  3  1  0  0  0  0
  3  4  1  0  0  0  0
  4  5  1  0  0  0  0
  4  6  1  0  0  0  0
  2  7  1  0  0  0  0
  7  8  2  0  0  0  0
  8  9  1  0  0  0  0
  9 10  2  0  0  0  0
  1 10  1  0  0  0  0
 10 11  1  0  0  0  0
 11 12  1  0  0  0  0
 12 13  1  0  0  0  0
 13 14  2  0  0  0  0
 13 15  1  0  0  0  0
 15 16  1  0  0  0  0
 16 17  2  0  0  0  0
 17 18  1  0  0  0  0
 18 19  2  0  0  0  0
 19 20  1  0  0  0  0
 20 21  2  0  0  0  0
 16 21  1  0  0  0  0
 21 22  1  0  0  0  0
 22 23  1  0  0  0  0
 20 24  1  0  0  0  0
 24 25  1  0  0  0  0
 12 26  1  0  0  0  0
  9 26  1  0  0  0  0
M  CHG  2  26  -1  27   1
M  END
>  <Name>
Pantoprazole Sodium Hydrate

>  <CAS>
164579-32-2

>  <Formula>
C16H15F2N3O4S

>  <MolWt>
383.38 

>  <Bioactivity>
Pantoprazole is a proton pump inhibitor drug used for short-term treatment of erosion and ulceration of the esophagus caused by gastroesophageal reflux disease.

>  <Pathways>
Membrane Transporter/Ion Channel

>  <Target>
ATPase inhibitor; Proton Pump inhibitor

>  <Receptor>
Potassium-transporting ATPase;Proton Pump

>  <Reference>
1. Cheer SM, et al. Drugs. 2003; 63(1):101-33. 

$$$$
T1245
  Mrv1561503291623562D          

 87 86  0  0  1  0            999 V2000
   -3.3748   -1.5650    0.0000 C   0  0  2  0  0  0  0  0  0  0  0  0
   -4.0372   -2.0567    0.0000 N   0  0  0  0  0  0  0  0  0  0  0  0
   -4.7943   -1.7289    0.0000 C   0  0  0  0  0  0  0  0  0  0  0  0
   -4.8889   -0.9093    0.0000 O   0  0  0  0  0  0  0  0  0  0  0  0
   -5.4567   -2.2206    0.0000 C   0  0  1  0  0  0  0  0  0  0  0  0
   -6.2138   -1.8928    0.0000 N   0  0  0  0  0  0  0  0  0  0  0  0
   -6.8762   -2.3845    0.0000 C   0  0  0  0  0  0  0  0  0  0  0  0
   -6.7816   -3.2041    0.0000 O   0  0  0  0  0  0  0  0  0  0  0  0
   -7.6333   -2.0567    0.0000 C   0  0  0  0  0  0  0  0  0  0  0  0
   -8.2957   -2.5484    0.0000 C   0  0  0  0  0  0  0  0  0  0  0  0
   -9.0528   -2.2206    0.0000 C   0  0  0  0  0  0  0  0  0  0  0  0
   -9.7152   -2.7123    0.0000 C   0  0  0  0  0  0  0  0  0  0  0  0
  -10.4723   -2.3845    0.0000 C   0  0  0  0  0  0  0  0  0  0  0  0
  -11.1348   -2.8762    0.0000 C   0  0  0  0  0  0  0  0  0  0  0  0
  -11.8918   -2.5484    0.0000 C   0  0  0  0  0  0  0  0  0  0  0  0
  -10.5670   -1.5650    0.0000 C   0  0  0  0  0  0  0  0  0  0  0  0
   -5.3621   -3.0401    0.0000 C   0  0  0  0  0  0  0  0  0  0  0  0
   -4.6050   -3.3680    0.0000 C   0  0  0  0  0  0  0  0  0  0  0  0
   -4.5104   -4.1875    0.0000 N   0  0  0  0  0  0  0  0  0  0  0  0
   -2.6177   -1.8928    0.0000 C   0  0  0  0  0  0  0  0  0  0  0  0
   -2.5231   -2.7123    0.0000 O   0  0  0  0  0  0  0  0  0  0  0  0
   -1.9553   -1.4010    0.0000 N   0  0  0  0  0  0  0  0  0  0  0  0
   -1.1982   -1.7289    0.0000 C   0  0  2  0  0  0  0  0  0  0  0  0
   -0.5358   -1.2371    0.0000 C   0  0  0  0  0  0  0  0  0  0  0  0
    0.2213   -1.5650    0.0000 O   0  0  0  0  0  0  0  0  0  0  0  0
   -0.6304   -0.4176    0.0000 N   0  0  0  0  0  0  0  0  0  0  0  0
    0.0321    0.0742    0.0000 C   0  0  2  0  0  0  0  0  0  0  0  0
   -0.6547    0.5314    0.0000 C   0  0  0  0  0  0  0  0  0  0  0  0
   -1.4282    0.2446    0.0000 O   0  0  0  0  0  0  0  0  0  0  0  0
   -0.4320    1.3258    0.0000 N   0  0  0  0  0  0  0  0  0  0  0  0
    0.3923    1.3595    0.0000 C   0  0  2  0  0  0  0  0  0  0  0  0
    1.0648    1.9619    0.0000 C   0  0  0  0  0  0  0  0  0  0  0  0
    0.8778    2.7654    0.0000 O   0  0  0  0  0  0  0  0  0  0  0  0
    1.8592    1.7392    0.0000 N   0  0  0  0  0  0  0  0  0  0  0  0
    2.4492    2.3158    0.0000 C   0  0  1  0  0  0  0  0  0  0  0  0
    3.2436    2.0932    0.0000 C   0  0  0  0  0  0  0  0  0  0  0  0
    3.4479    1.2939    0.0000 O   0  0  0  0  0  0  0  0  0  0  0  0
    3.8336    2.6698    0.0000 N   0  0  0  0  0  0  0  0  0  0  0  0
    4.6280    2.4471    0.0000 C   0  0  2  0  0  0  0  0  0  0  0  0
    5.2180    3.0238    0.0000 C   0  0  0  0  0  0  0  0  0  0  0  0
    5.0136    3.8230    0.0000 O   0  0  0  0  0  0  0  0  0  0  0  0
    6.0124    2.8011    0.0000 N   0  0  0  0  0  0  0  0  0  0  0  0
    6.2167    2.0018    0.0000 C   0  0  2  0  0  0  0  0  0  0  0  0
    5.6267    1.4252    0.0000 C   0  0  0  0  0  0  0  0  0  0  0  0
    4.8323    1.6478    0.0000 O   0  0  0  0  0  0  0  0  0  0  0  0
    5.8311    0.6259    0.0000 N   0  0  0  0  0  0  0  0  0  0  0  0
    5.2411    0.0493    0.0000 C   0  0  2  0  0  0  0  0  0  0  0  0
    4.4467    0.2719    0.0000 C   0  0  0  0  0  0  0  0  0  0  0  0
    4.2423    1.0712    0.0000 O   0  0  0  0  0  0  0  0  0  0  0  0
    3.8566   -0.3047    0.0000 N   0  0  0  0  0  0  0  0  0  0  0  0
    3.0623   -0.0820    0.0000 C   0  0  2  0  0  0  0  0  0  0  0  0
    2.4722   -0.6587    0.0000 C   0  0  0  0  0  0  0  0  0  0  0  0
    2.6766   -1.4580    0.0000 O   0  0  0  0  0  0  0  0  0  0  0  0
    1.6779   -0.4360    0.0000 N   0  0  0  0  0  0  0  0  0  0  0  0
    1.0878   -1.0126    0.0000 C   0  0  0  0  0  0  0  0  0  0  0  0
    0.2934   -0.7900    0.0000 C   0  0  0  0  0  0  0  0  0  0  0  0
    3.2666   -0.8813    0.0000 C   0  0  2  0  0  0  0  0  0  0  0  0
    3.1282   -1.6946    0.0000 O   0  0  0  0  0  0  0  0  0  0  0  0
    4.0610   -1.1040    0.0000 C   0  0  0  0  0  0  0  0  0  0  0  0
    5.4454   -0.7500    0.0000 C   0  0  0  0  0  0  0  0  0  0  0  0
    6.2398   -0.9727    0.0000 C   0  0  0  0  0  0  0  0  0  0  0  0
    6.4442   -1.7720    0.0000 N   0  0  0  0  0  0  0  0  0  0  0  0
    7.0111    1.7791    0.0000 C   0  0  0  0  0  0  0  0  0  0  0  0
    7.6011    2.3558    0.0000 C   0  0  0  0  0  0  0  0  0  0  0  0
    8.3955    2.1331    0.0000 N   0  0  0  0  0  0  0  0  0  0  0  0
    4.4236    3.2464    0.0000 C   0  0  0  0  0  0  0  0  0  0  0  0
    3.6292    3.4691    0.0000 C   0  0  0  0  0  0  0  0  0  0  0  0
    3.0392    2.8924    0.0000 C   0  0  0  0  0  0  0  0  0  0  0  0
    3.4249    4.2684    0.0000 C   0  0  0  0  0  0  0  0  0  0  0  0
    2.2448    3.1151    0.0000 C   0  0  0  0  0  0  0  0  0  0  0  0
    1.4504    3.3378    0.0000 C   0  0  0  0  0  0  0  0  0  0  0  0
    0.6342    3.2181    0.0000 C   0  0  0  0  0  0  0  0  0  0  0  0
    1.2461    4.1371    0.0000 C   0  0  0  0  0  0  0  0  0  0  0  0
    0.0820    2.1239    0.0000 C   0  0  0  0  0  0  0  0  0  0  0  0
   -0.7352    2.2373    0.0000 C   0  0  0  0  0  0  0  0  0  0  0  0
   -1.0456    3.0017    0.0000 N   0  0  0  0  0  0  0  0  0  0  0  0
   -1.1036   -2.5484    0.0000 C   0  0  0  0  0  0  0  0  0  0  0  0
   -0.3465   -2.8762    0.0000 C   0  0  0  0  0  0  0  0  0  0  0  0
   -0.2519   -3.6958    0.0000 N   0  0  0  0  0  0  0  0  0  0  0  0
   -3.4694   -0.7454    0.0000 C   0  0  2  0  0  0  0  0  0  0  0  0
   -2.8070   -0.2537    0.0000 O   0  0  0  0  0  0  0  0  0  0  0  0
   -4.2265   -0.4176    0.0000 C   0  0  0  0  0  0  0  0  0  0  0  0
   11.1062   -0.8250    0.0000 O   0  0  0  0  0  0  0  0  0  0  0  0
   11.1062    0.0000    0.0000 S   0  0  0  0  0  0  0  0  0  0  0  0
   11.1062    0.8250    0.0000 O   0  0  0  0  0  0  0  0  0  0  0  0
   11.9312   -0.0000    0.0000 O   0  0  0  0  0  0  0  0  0  0  0  0
   10.2812    0.0000    0.0000 O   0  0  0  0  0  0  0  0  0  0  0  0
  1  2  1  1  0  0  0
  2  3  1  0  0  0  0
  3  4  2  0  0  0  0
  3  5  1  0  0  0  0
  5  6  1  6  0  0  0
  6  7  1  0  0  0  0
  7  8  2  0  0  0  0
  7  9  1  0  0  0  0
  9 10  1  0  0  0  0
 10 11  1  0  0  0  0
 11 12  1  0  0  0  0
 12 13  1  0  0  0  0
 13 14  1  0  0  0  0
 14 15  1  0  0  0  0
 13 16  1  0  0  0  0
  5 17  1  0  0  0  0
 17 18  1  0  0  0  0
 18 19  1  0  0  0  0
  1 20  1  0  0  0  0
 20 21  2  0  0  0  0
 20 22  1  0  0  0  0
 23 22  1  6  0  0  0
 23 24  1  0  0  0  0
 24 25  2  0  0  0  0
 24 26  1  0  0  0  0
 27 26  1  1  0  0  0
 27 28  1  0  0  0  0
 28 29  2  0  0  0  0
 28 30  1  0  0  0  0
 30 31  1  0  0  0  0
 31 32  1  0  0  0  0
 32 33  2  0  0  0  0
 32 34  1  0  0  0  0
 34 35  1  0  0  0  0
 35 36  1  0  0  0  0
 36 37  2  0  0  0  0
 36 38  1  0  0  0  0
 38 39  1  0  0  0  0
 39 40  1  0  0  0  0
 40 41  2  0  0  0  0
 40 42  1  0  0  0  0
 42 43  1  0  0  0  0
 43 44  1  0  0  0  0
 44 45  2  0  0  0  0
 44 46  1  0  0  0  0
 46 47  1  0  0  0  0
 47 48  1  0  0  0  0
 48 49  2  0  0  0  0
 48 50  1  0  0  0  0
 50 51  1  0  0  0  0
 51 52  1  0  0  0  0
 52 53  2  0  0  0  0
 52 54  1  0  0  0  0
 54 55  1  0  0  0  0
 55 56  1  0  0  0  0
 27 56  1  0  0  0  0
 51 57  1  6  0  0  0
 57 58  1  1  0  0  0
 57 59  1  0  0  0  0
 47 60  1  1  0  0  0
 60 61  1  0  0  0  0
 61 62  1  0  0  0  0
 43 63  1  1  0  0  0
 63 64  1  0  0  0  0
 64 65  1  0  0  0  0
 39 66  1  6  0  0  0
 66 67  1  0  0  0  0
 67 68  1  0  0  0  0
 67 69  1  0  0  0  0
 35 70  1  6  0  0  0
 70 71  1  0  0  0  0
 71 72  1  0  0  0  0
 71 73  1  0  0  0  0
 31 74  1  6  0  0  0
 74 75  1  0  0  0  0
 75 76  1  0  0  0  0
 23 77  1  0  0  0  0
 77 78  1  0  0  0  0
 78 79  1  0  0  0  0
  1 80  1  0  0  0  0
 80 81  1  1  0  0  0
 80 82  1  0  0  0  0
 83 84  2  0  0  0  0
 84 85  2  0  0  0  0
 84 86  1  0  0  0  0
 84 87  1  0  0  0  0
M  END
>  <Name>
Colistin sulfate

>  <CAS>
1264-72-8

>  <Formula>
2(C52H98N16O13)5(H2SO4)

>  <MolWt>
2801.27 

>  <Bioactivity>
Colistin is a cyclic cationic decapeptide linked to a fatty acid side chain, it belongs to a group of similarly structured bacterial antimicrobial peptides.

>  <Pathways>
Microbiology & Virology

>  <Target>
Antibacterial

>  <Receptor>
Cell wall

>  <Reference>
1. Evans ME, et al. Ann Pharmacother, 1999, 33(9), 960-967.

$$$$
101831-37-2
  Mrv1561503291623562D          

 26 28  0  0  0  0            999 V2000
    2.8579   -1.6500    0.0000 C   0  0  0  0  0  0  0  0  0  0  0  0
    2.8579   -2.4750    0.0000 C   0  0  0  0  0  0  0  0  0  0  0  0
    3.5724   -2.8875    0.0000 N   0  0  0  0  0  0  0  0  0  0  0  0
    4.2868   -2.4750    0.0000 C   0  0  0  0  0  0  0  0  0  0  0  0
    5.0013   -2.8875    0.0000 N   0  0  0  0  0  0  0  0  0  0  0  0
    5.0013   -3.7125    0.0000 C   0  0  0  0  0  0  0  0  0  0  0  0
    5.7158   -4.1250    0.0000 O   0  0  0  0  0  0  0  0  0  0  0  0
    4.2868   -4.1250    0.0000 C   0  0  0  0  0  0  0  0  0  0  0  0
    3.5724   -3.7125    0.0000 N   0  0  0  0  0  0  0  0  0  0  0  0
    4.2868   -1.6500    0.0000 O   0  0  0  0  0  0  0  0  0  0  0  0
    2.1434   -2.8875    0.0000 C   0  0  0  0  0  0  0  0  0  0  0  0
    1.4289   -2.4750    0.0000 C   0  0  0  0  0  0  0  0  0  0  0  0
    0.7145   -2.8875    0.0000 Cl  0  0  0  0  0  0  0  0  0  0  0  0
    1.4289   -1.6500    0.0000 C   0  0  0  0  0  0  0  0  0  0  0  0
    2.1434   -1.2375    0.0000 C   0  0  0  0  0  0  0  0  0  0  0  0
    2.1434   -0.4125    0.0000 Cl  0  0  0  0  0  0  0  0  0  0  0  0
    0.7145   -1.2375    0.0000 C   0  0  0  0  0  0  0  0  0  0  0  0
    0.7145   -0.4125    0.0000 C   0  0  0  0  0  0  0  0  0  0  0  0
    0.0000    0.0000    0.0000 C   0  0  0  0  0  0  0  0  0  0  0  0
    0.0000    0.8250    0.0000 C   0  0  0  0  0  0  0  0  0  0  0  0
    0.7145    1.2375    0.0000 C   0  0  0  0  0  0  0  0  0  0  0  0
    1.4289    0.8250    0.0000 C   0  0  0  0  0  0  0  0  0  0  0  0
    1.4289    0.0000    0.0000 C   0  0  0  0  0  0  0  0  0  0  0  0
    0.7145    2.0625    0.0000 Cl  0  0  0  0  0  0  0  0  0  0  0  0
   -0.0000   -1.6500    0.0000 C   0  0  0  0  0  0  0  0  0  0  0  0
   -0.7145   -2.0625    0.0000 N   0  0  0  0  0  0  0  0  0  0  0  0
  1  2  2  0  0  0  0
  2  3  1  0  0  0  0
  3  4  1  0  0  0  0
  4  5  1  0  0  0  0
  5  6  1  0  0  0  0
  6  7  2  0  0  0  0
  6  8  1  0  0  0  0
  8  9  2  0  0  0  0
  3  9  1  0  0  0  0
  4 10  2  0  0  0  0
  2 11  1  0  0  0  0
 11 12  2  0  0  0  0
 12 13  1  0  0  0  0
 12 14  1  0  0  0  0
 14 15  2  0  0  0  0
  1 15  1  0  0  0  0
 15 16  1  0  0  0  0
 14 17  1  0  0  0  0
 17 18  1  0  0  0  0
 18 19  2  0  0  0  0
 19 20  1  0  0  0  0
 20 21  2  0  0  0  0
 21 22  1  0  0  0  0
 22 23  2  0  0  0  0
 18 23  1  0  0  0  0
 21 24  1  0  0  0  0
 17 25  1  0  0  0  0
 25 26  3  0  0  0  0
M  END
>  <Name>
Diclazuril

>  <CAS>
101831-37-2

>  <Formula>
C17H9Cl3N4O2

>  <MolWt>
407.64 

>  <Bioactivity>
Diclazuril is an anti-coccidial drug.

>  <Pathways>
Others

>  <Target>
Others

>  <Receptor>
Others

>  <Reference>
1. Oz HS, et al. Int J Clin Med. 2014 Jan 1;5(3):93-101.

$$$$
5874-97-5
  Mrv1561503291623562D          

 35 34  0  0  0  0            999 V2000
   -0.4763   -0.6600    0.0000 C   0  0  0  0  0  0  0  0  0  0  0  0
   -1.1908   -1.0725    0.0000 C   0  0  0  0  0  0  0  0  0  0  0  0
   -1.9053   -0.6600    0.0000 C   0  0  0  0  0  0  0  0  0  0  0  0
   -1.9053    0.1650    0.0000 C   0  0  0  0  0  0  0  0  0  0  0  0
   -1.1908    0.5775    0.0000 C   0  0  0  0  0  0  0  0  0  0  0  0
   -0.4763    0.1650    0.0000 C   0  0  0  0  0  0  0  0  0  0  0  0
    0.2382    0.5775    0.0000 C   0  0  0  0  0  0  0  0  0  0  0  0
    0.9526    0.1650    0.0000 C   0  0  0  0  0  0  0  0  0  0  0  0
    1.6671    0.5775    0.0000 N   0  0  0  0  0  0  0  0  0  0  0  0
    2.3816    0.1650    0.0000 C   0  0  0  0  0  0  0  0  0  0  0  0
    3.0960    0.5775    0.0000 C   0  0  0  0  0  0  0  0  0  0  0  0
    2.3816   -0.6600    0.0000 C   0  0  0  0  0  0  0  0  0  0  0  0
    0.2382    1.4025    0.0000 O   0  0  0  0  0  0  0  0  0  0  0  0
   -2.6197    0.5775    0.0000 O   0  0  0  0  0  0  0  0  0  0  0  0
   -1.1908   -1.8975    0.0000 O   0  0  0  0  0  0  0  0  0  0  0  0
    7.1252   -0.6600    0.0000 C   0  0  0  0  0  0  0  0  0  0  0  0
    6.4107   -1.0725    0.0000 C   0  0  0  0  0  0  0  0  0  0  0  0
    5.6962   -0.6600    0.0000 C   0  0  0  0  0  0  0  0  0  0  0  0
    5.6962    0.1650    0.0000 C   0  0  0  0  0  0  0  0  0  0  0  0
    6.4107    0.5775    0.0000 C   0  0  0  0  0  0  0  0  0  0  0  0
    7.1252    0.1650    0.0000 C   0  0  0  0  0  0  0  0  0  0  0  0
    7.8396    0.5775    0.0000 C   0  0  0  0  0  0  0  0  0  0  0  0
    8.5541    0.1650    0.0000 C   0  0  0  0  0  0  0  0  0  0  0  0
    9.2686    0.5775    0.0000 N   0  0  0  0  0  0  0  0  0  0  0  0
    9.9831    0.1650    0.0000 C   0  0  0  0  0  0  0  0  0  0  0  0
   10.6975    0.5775    0.0000 C   0  0  0  0  0  0  0  0  0  0  0  0
    9.9831   -0.6600    0.0000 C   0  0  0  0  0  0  0  0  0  0  0  0
    7.8396    1.4025    0.0000 O   0  0  0  0  0  0  0  0  0  0  0  0
    4.9818    0.5775    0.0000 O   0  0  0  0  0  0  0  0  0  0  0  0
    6.4107   -1.8975    0.0000 O   0  0  0  0  0  0  0  0  0  0  0  0
    0.0000   -5.1975    0.0000 O   0  0  0  0  0  0  0  0  0  0  0  0
    0.0000   -4.3725    0.0000 S   0  0  0  0  0  0  0  0  0  0  0  0
    0.0000   -3.5475    0.0000 O   0  0  0  0  0  0  0  0  0  0  0  0
    0.8250   -4.3725    0.0000 O   0  0  0  0  0  0  0  0  0  0  0  0
   -0.8250   -4.3725    0.0000 O   0  0  0  0  0  0  0  0  0  0  0  0
  1  2  2  0  0  0  0
  2  3  1  0  0  0  0
  3  4  2  0  0  0  0
  4  5  1  0  0  0  0
  5  6  2  0  0  0  0
  1  6  1  0  0  0  0
  6  7  1  0  0  0  0
  7  8  1  0  0  0  0
  8  9  1  0  0  0  0
  9 10  1  0  0  0  0
 10 11  1  0  0  0  0
 10 12  1  0  0  0  0
  7 13  1  0  0  0  0
  4 14  1  0  0  0  0
  2 15  1  0  0  0  0
 16 17  2  0  0  0  0
 17 18  1  0  0  0  0
 18 19  2  0  0  0  0
 19 20  1  0  0  0  0
 20 21  2  0  0  0  0
 16 21  1  0  0  0  0
 21 22  1  0  0  0  0
 22 23  1  0  0  0  0
 23 24  1  0  0  0  0
 24 25  1  0  0  0  0
 25 26  1  0  0  0  0
 25 27  1  0  0  0  0
 22 28  1  0  0  0  0
 19 29  1  0  0  0  0
 17 30  1  0  0  0  0
 31 32  2  0  0  0  0
 32 33  1  0  0  0  0
 32 34  1  0  0  0  0
 32 35  2  0  0  0  0
M  END
>  <Name>
Orciprenaline sulfate

>  <CAS>
5874-97-5

>  <Formula>
C11H17NO3.0.5H2O4S

>  <MolWt>
260.30 

>  <Bioactivity>
A beta-2 adrenergic agonist used in the treatment of ASTHMA and BRONCHIAL SPASM.

>  <Pathways>
GPCR/G Protein

>  <Target>
Adrenergic Receptor antagonist

>  <Receptor>
?-adrenergic receptor

>  <Reference>
1. Kimura M, et al. J Pharmacol Exp Ther. 1999 Oct;291(1):171-80.

$$$$
T0974
  Mrv1561503291623562D          

 45 47  0  0  0  0            999 V2000
   -1.3764    0.4241    0.0000 C   0  5  0  0  0  0  0  0  0  0  0  0
   -2.0909    0.0116    0.0000 N   0  0  0  0  0  0  0  0  0  0  0  0
   -2.8054    0.4241    0.0000 C   0  0  0  0  0  0  0  0  0  0  0  0
   -2.8054    1.2491    0.0000 O   0  0  0  0  0  0  0  0  0  0  0  0
   -3.5198    0.0116    0.0000 C   0  0  0  0  0  0  0  0  0  0  0  0
   -3.5198   -0.8134    0.0000 C   0  0  0  0  0  0  0  0  0  0  0  0
   -4.2343   -1.2259    0.0000 C   0  0  0  0  0  0  0  0  0  0  0  0
   -4.9488   -0.8134    0.0000 C   0  0  0  0  0  0  0  0  0  0  0  0
   -5.6633   -1.2259    0.0000 O   0  0  0  0  0  0  0  0  0  0  0  0
   -4.9488    0.0116    0.0000 C   0  0  0  0  0  0  0  0  0  0  0  0
   -4.2343    0.4241    0.0000 C   0  0  0  0  0  0  0  0  0  0  0  0
   -4.2343   -2.0509    0.0000 C   0  0  0  0  0  0  0  0  0  0  0  0
   -4.9488   -2.4634    0.0000 C   0  0  0  0  0  0  0  0  0  0  0  0
   -4.9488   -3.2884    0.0000 C   0  0  0  0  0  0  0  0  0  0  0  0
   -4.2343   -3.7009    0.0000 C   0  0  0  0  0  0  0  0  0  0  0  0
   -5.6633   -3.7009    0.0000 C   0  0  0  0  0  0  0  0  0  0  0  0
   -0.6620    0.0116    0.0000 C   0  0  0  0  0  0  0  0  0  0  0  0
   -0.6620   -0.8134    0.0000 O   0  0  0  0  0  0  0  0  0  0  0  0
    0.0525    0.4241    0.0000 C   0  0  0  0  0  0  0  0  0  0  0  0
    0.0525    1.2491    0.0000 C   0  0  0  0  0  0  0  0  0  0  0  0
   -0.6620    1.6616    0.0000 O   0  0  0  0  0  0  0  0  0  0  0  0
   -1.3764    1.2491    0.0000 C   0  0  0  0  0  0  0  0  0  0  0  0
   -2.0909    1.6616    0.0000 O   0  0  0  0  0  0  0  0  0  0  0  0
    0.7670    1.6616    0.0000 C   0  0  0  0  0  0  0  0  0  0  0  0
    1.4815    1.2491    0.0000 C   0  0  0  0  0  0  0  0  0  0  0  0
    2.1959    1.6616    0.0000 O   0  0  0  0  0  0  0  0  0  0  0  0
    2.9104    1.2491    0.0000 C   0  0  0  0  0  0  0  0  0  0  0  0
    3.6249    1.6616    0.0000 O   0  0  0  0  0  0  0  0  0  0  0  0
    4.3393    1.2491    0.0000 C   0  0  0  0  0  0  0  0  0  0  0  0
    4.3393    0.4241    0.0000 C   0  0  0  0  0  0  0  0  0  0  0  0
    5.0538    0.0116    0.0000 O   0  0  0  0  0  0  0  0  0  0  0  0
    5.7683    0.4241    0.0000 C   0  0  0  0  0  0  0  0  0  0  0  0
    3.6249    0.0116    0.0000 C   0  0  0  0  0  0  0  0  0  0  0  0
    3.6249   -0.8134    0.0000 O   0  0  0  0  0  0  0  0  0  0  0  0
    4.3393   -1.2259    0.0000 C   0  0  0  0  0  0  0  0  0  0  0  0
    5.0538   -0.8134    0.0000 O   0  0  0  0  0  0  0  0  0  0  0  0
    4.3393   -2.0509    0.0000 N   0  0  0  0  0  0  0  0  0  0  0  0
    2.9104    0.4241    0.0000 C   0  0  0  0  0  0  0  0  0  0  0  0
    2.1959    0.0116    0.0000 O   0  0  0  0  0  0  0  0  0  0  0  0
    4.7765    1.9487    0.0000 C   0  0  0  0  0  0  0  0  0  0  0  0
    5.1638    1.2779    0.0000 C   0  0  0  0  0  0  0  0  0  0  0  0
    1.4815    0.4241    0.0000 C   0  0  0  0  0  0  0  0  0  0  0  0
    0.7670    0.0116    0.0000 C   0  0  0  0  0  0  0  0  0  0  0  0
    0.7670    2.4866    0.0000 C   0  0  0  0  0  0  0  0  0  0  0  0
    8.1254    0.0000    0.0000 Na  0  3  0  0  0  0  0  0  0  0  0  0
  1  2  1  0  0  0  0
  2  3  1  0  0  0  0
  3  4  2  0  0  0  0
  3  5  1  0  0  0  0
  5  6  2  0  0  0  0
  6  7  1  0  0  0  0
  7  8  2  0  0  0  0
  8  9  1  0  0  0  0
  8 10  1  0  0  0  0
 10 11  2  0  0  0  0
  5 11  1  0  0  0  0
  7 12  1  0  0  0  0
 12 13  1  0  0  0  0
 13 14  2  0  0  0  0
 14 15  1  0  0  0  0
 14 16  1  0  0  0  0
  1 17  1  0  0  0  0
 17 18  2  0  0  0  0
 17 19  1  0  0  0  0
 19 20  2  0  0  0  0
 20 21  1  0  0  0  0
 21 22  1  0  0  0  0
  1 22  1  0  0  0  0
 22 23  2  0  0  0  0
 20 24  1  0  0  0  0
 24 25  2  0  0  0  0
 25 26  1  0  0  0  0
 26 27  1  0  0  0  0
 27 28  1  0  0  0  0
 28 29  1  0  0  0  0
 29 30  1  0  0  0  0
 30 31  1  0  0  0  0
 31 32  1  0  0  0  0
 30 33  1  0  0  0  0
 33 34  1  0  0  0  0
 34 35  1  0  0  0  0
 35 36  2  0  0  0  0
 35 37  1  0  0  0  0
 33 38  1  0  0  0  0
 27 38  1  0  0  0  0
 38 39  1  0  0  0  0
 29 40  1  0  0  0  0
 29 41  1  0  0  0  0
 25 42  1  0  0  0  0
 42 43  2  0  0  0  0
 19 43  1  0  0  0  0
 24 44  1  0  0  0  0
M  CHG  2   1  -1  45   1
M  END
>  <Name>
Albamycinsodium

>  <CAS>
1476-53-5

>  <Formula>
C31H35N2NaO11

>  <MolWt>
634.61 

>  <Bioactivity>
An antibiotic compound derived from Streptomyces niveus. It has a chemical structure similar to coumarin. Novobiocin binds to DNA gyrase, and blocks adenosine triphosphatase (ATPase) activity. 

>  <Pathways>
DNA Damage/DNA Repair

>  <Target>
Topoisomerase inhibitor; ABC inhibitor; Bile salt export pump inhibitor

>  <Receptor>
Topoisomerase I, DNA gyrase;ABCG2;Bile salt export pump

>  <Reference>
1. Gormley NA, et al. Biochemistry. 1996 Apr 16;35(15):5083-92. 

$$$$
T0822
  Mrv1561503291623562D          

 21 23  0  0  1  0            999 V2000
    0.7145   -0.4125    0.0000 C   0  0  1  0  0  0  0  0  0  0  0  0
   -0.0000    0.0000    0.0000 C   0  0  0  0  0  0  0  0  0  0  0  0
   -0.7145   -0.4125    0.0000 C   0  0  0  0  0  0  0  0  0  0  0  0
   -1.4289    0.0000    0.0000 C   0  0  0  0  0  0  0  0  0  0  0  0
   -1.4289    0.8250    0.0000 C   0  0  0  0  0  0  0  0  0  0  0  0
   -0.7145    1.2375    0.0000 C   0  0  0  0  0  0  0  0  0  0  0  0
   -0.0000    0.8250    0.0000 C   0  0  0  0  0  0  0  0  0  0  0  0
   -0.7145    2.0625    0.0000 O   0  0  0  0  0  0  0  0  0  0  0  0
   -2.1434    1.2375    0.0000 O   0  0  0  0  0  0  0  0  0  0  0  0
    1.4289   -0.0000    0.0000 O   0  0  0  0  0  0  0  0  0  0  0  0
    2.1434   -0.4125    0.0000 C   0  0  0  0  0  0  0  0  0  0  0  0
    2.8579   -0.0000    0.0000 C   0  0  0  0  0  0  0  0  0  0  0  0
    3.5724   -0.4125    0.0000 C   0  0  0  0  0  0  0  0  0  0  0  0
    3.5724   -1.2375    0.0000 C   0  0  0  0  0  0  0  0  0  0  0  0
    2.8579   -1.6500    0.0000 C   0  0  0  0  0  0  0  0  0  0  0  0
    2.1434   -1.2375    0.0000 C   0  0  0  0  0  0  0  0  0  0  0  0
    1.4289   -1.6500    0.0000 C   0  0  0  0  0  0  0  0  0  0  0  0
    0.7145   -1.2375    0.0000 C   0  0  2  0  0  0  0  0  0  0  0  0
   -0.0000   -1.6500    0.0000 O   0  0  0  0  0  0  0  0  0  0  0  0
    2.8579   -2.4750    0.0000 O   0  0  0  0  0  0  0  0  0  0  0  0
    4.2868    0.0000    0.0000 O   0  0  0  0  0  0  0  0  0  0  0  0
  1  2  1  1  0  0  0
  2  3  2  0  0  0  0
  3  4  1  0  0  0  0
  4  5  2  0  0  0  0
  5  6  1  0  0  0  0
  6  7  2  0  0  0  0
  2  7  1  0  0  0  0
  6  8  1  0  0  0  0
  5  9  1  0  0  0  0
  1 10  1  0  0  0  0
 10 11  1  0  0  0  0
 11 12  2  0  0  0  0
 12 13  1  0  0  0  0
 13 14  2  0  0  0  0
 14 15  1  0  0  0  0
 15 16  2  0  0  0  0
 11 16  1  0  0  0  0
 16 17  1  0  0  0  0
 17 18  1  0  0  0  0
  1 18  1  0  0  0  0
 18 19  1  6  0  0  0
 15 20  1  0  0  0  0
 13 21  1  0  0  0  0
M  END
>  <Name>
Cianidanol

>  <CAS>
154-23-4

>  <Formula>
C15H14O6

>  <MolWt>
290.27 

>  <Bioactivity>
Catechin is a flavan-3-ol, a type of natural phenol and antioxidant. It is a plant secondary metabolite. It belongs to the group of flavan-3-ols (or simply flavanols), part of the chemical family of flavonoids.

>  <Pathways>
Immunology/Inflammation

>  <Target>
ROS inhibitor

>  <Receptor>
Antioxidant

>  <Reference>
1. Bhujbal NN, et al. Carbohydr Res. 2009 Apr 21;344(6):734-8. 

$$$$
T0085L
  Mrv1561503291623562D          

 20 22  0  0  1  0            999 V2000
   -0.3984   -2.1500    0.0000 C   0  0  1  0  0  0  0  0  0  0  0  0
   -0.1435   -1.3654    0.0000 N   0  0  0  0  0  0  0  0  0  0  0  0
    0.6411   -1.1104    0.0000 C   0  0  0  0  0  0  0  0  0  0  0  0
    0.6411   -0.2854    0.0000 C   0  0  0  0  0  0  0  0  0  0  0  0
   -0.1435   -0.0305    0.0000 N   0  0  0  0  0  0  0  0  0  0  0  0
   -0.6284   -0.6979    0.0000 C   0  0  0  0  0  0  0  0  0  0  0  0
    1.3556    0.1271    0.0000 C   0  0  0  0  0  0  0  0  0  0  0  0
    1.3556    0.9521    0.0000 O   0  0  0  0  0  0  0  0  0  0  0  0
    2.0701   -0.2854    0.0000 N   0  0  0  0  0  0  0  0  0  0  0  0
    2.0701   -1.1104    0.0000 C   0  0  0  0  0  0  0  0  0  0  0  0
    1.3556   -1.5229    0.0000 N   0  0  0  0  0  0  0  0  0  0  0  0
    2.7845   -1.5229    0.0000 N   0  0  0  0  0  0  0  0  0  0  0  0
    0.0865   -2.8174    0.0000 C   0  0  0  0  0  0  0  0  0  0  0  0
   -0.3984   -3.4849    0.0000 C   0  0  2  0  0  0  0  0  0  0  0  0
   -0.1435   -4.2695    0.0000 O   0  0  0  0  0  0  0  0  0  0  0  0
   -1.1831   -3.2299    0.0000 C   0  0  2  0  0  0  0  0  0  0  0  0
   -1.1831   -2.4049    0.0000 C   0  0  0  0  0  0  0  0  0  0  0  0
   -1.8505   -1.9200    0.0000 C   0  0  0  0  0  0  0  0  0  0  0  0
   -1.8505   -3.7149    0.0000 C   0  0  0  0  0  0  0  0  0  0  0  0
   -1.7643   -4.5353    0.0000 O   0  0  0  0  0  0  0  0  0  0  0  0
  1  2  1  1  0  0  0
  2  3  1  0  0  0  0
  3  4  2  0  0  0  0
  4  5  1  0  0  0  0
  5  6  2  0  0  0  0
  2  6  1  0  0  0  0
  4  7  1  0  0  0  0
  7  8  2  0  0  0  0
  7  9  1  0  0  0  0
  9 10  2  0  0  0  0
 10 11  1  0  0  0  0
  3 11  1  0  0  0  0
 10 12  1  0  0  0  0
  1 13  1  0  0  0  0
 13 14  1  0  0  0  0
 14 15  1  6  0  0  0
 14 16  1  0  0  0  0
 16 17  1  0  0  0  0
  1 17  1  0  0  0  0
 17 18  2  0  0  0  0
 16 19  1  1  0  0  0
 19 20  1  0  0  0  0
M  END
>  <Name>
Entecavir

>  <CAS>
142217-69-4

>  <Formula>
C12H15N5O3

>  <MolWt>
277.28 

>  <Bioactivity>
Entecavir(BMS200475; SQ34676) is a guanosine analogue that inhibits reverse transcription, DNA replication and transcription in the viral replication process; oral antiHBV drug.

>  <Pathways>
DNA Damage/DNA Repair;Microbiology & Virology

>  <Target>
Reverse Transcriptase inhibitor

>  <Receptor>
Reverse Transcriptase

>  <Reference>
1. Levine S, et al. Antimicrob Agents Chemother, 2002, 46(8), 2525-2532.

$$$$
T0274
  Mrv1561503291623562D          

 19 21  0  0  0  0            999 V2000
    0.6411   -2.7604    0.0000 C   0  0  0  0  0  0  0  0  0  0  0  0
    1.3556   -2.3479    0.0000 C   0  0  0  0  0  0  0  0  0  0  0  0
    1.3556   -1.5229    0.0000 C   0  0  0  0  0  0  0  0  0  0  0  0
    0.6411   -1.1104    0.0000 C   0  0  0  0  0  0  0  0  0  0  0  0
   -0.0734   -1.5229    0.0000 C   0  0  0  0  0  0  0  0  0  0  0  0
   -0.0734   -2.3479    0.0000 C   0  0  0  0  0  0  0  0  0  0  0  0
   -0.8580   -2.6029    0.0000 O   0  0  0  0  0  0  0  0  0  0  0  0
   -1.3429   -1.9354    0.0000 C   0  0  0  0  0  0  0  0  0  0  0  0
   -0.8580   -1.2680    0.0000 O   0  0  0  0  0  0  0  0  0  0  0  0
    2.0701   -1.1104    0.0000 C   0  0  0  0  0  0  0  0  0  0  0  0
    2.7845   -1.5229    0.0000 C   0  0  0  0  0  0  0  0  0  0  0  0
    2.7845   -2.3479    0.0000 N   0  0  0  0  0  0  0  0  0  0  0  0
    2.0701   -2.7604    0.0000 N   0  0  0  0  0  0  0  0  0  0  0  0
    2.0701   -3.5854    0.0000 C   0  0  0  0  0  0  0  0  0  0  0  0
    1.3556   -3.9979    0.0000 C   0  0  0  0  0  0  0  0  0  0  0  0
    3.4990   -1.1104    0.0000 C   0  0  0  0  0  0  0  0  0  0  0  0
    3.4990   -0.2854    0.0000 O   0  0  0  0  0  0  0  0  0  0  0  0
    4.2135   -1.5229    0.0000 O   0  0  0  0  0  0  0  0  0  0  0  0
    2.0701   -0.2854    0.0000 O   0  0  0  0  0  0  0  0  0  0  0  0
  1  2  2  0  0  0  0
  2  3  1  0  0  0  0
  3  4  2  0  0  0  0
  4  5  1  0  0  0  0
  5  6  2  0  0  0  0
  1  6  1  0  0  0  0
  6  7  1  0  0  0  0
  7  8  1  0  0  0  0
  8  9  1  0  0  0  0
  5  9  1  0  0  0  0
  3 10  1  0  0  0  0
 10 11  1  0  0  0  0
 11 12  2  0  0  0  0
 12 13  1  0  0  0  0
  2 13  1  0  0  0  0
 13 14  1  0  0  0  0
 14 15  1  0  0  0  0
 11 16  1  0  0  0  0
 16 17  1  0  0  0  0
 16 18  2  0  0  0  0
 10 19  2  0  0  0  0
M  END
>  <Name>
Cinoxacin

>  <CAS>
28657-80-9

>  <Formula>
C12H10N2O5

>  <MolWt>
262.22 

>  <Bioactivity>
Cinoxacin was an older synthetic antimicrobial related to the quinolone class of antibiotics with activity similar to oxolinic acid and nalidixic acid. 

>  <Pathways>
DNA Damage/DNA Repair

>  <Target>
Topoisomerase inhibitor

>  <Receptor>
Topoisomerase II

>  <Reference>
1. Jariyawat S, et al. J Pharmacol Exp Ther. 1999 Aug;290(2):672-7. 

$$$$
T1206
  Mrv1561503291623562D          

 28 31  0  0  0  0            999 V2000
   -0.7145   -1.2375    0.0000 C   0  0  0  0  0  0  0  0  0  0  0  0
   -1.4289   -1.6500    0.0000 C   0  0  0  0  0  0  0  0  0  0  0  0
   -1.4289   -2.4750    0.0000 C   0  0  0  0  0  0  0  0  0  0  0  0
   -0.7145   -2.8875    0.0000 C   0  0  0  0  0  0  0  0  0  0  0  0
    0.0000   -2.4750    0.0000 C   0  0  0  0  0  0  0  0  0  0  0  0
    0.7145   -2.8875    0.0000 N   0  0  0  0  0  0  0  0  0  0  0  0
    1.4289   -2.4750    0.0000 C   0  0  0  0  0  0  0  0  0  0  0  0
    1.4289   -1.6500    0.0000 C   0  0  0  0  0  0  0  0  0  0  0  0
    0.7145   -1.2375    0.0000 C   0  0  0  0  0  0  0  0  0  0  0  0
   -0.0000   -1.6500    0.0000 C   0  0  0  0  0  0  0  0  0  0  0  0
    0.7145   -0.4125    0.0000 N   0  0  0  0  0  0  0  0  0  0  0  0
    1.4289    0.0000    0.0000 C   0  0  0  0  0  0  0  0  0  0  0  0
    1.4289    0.8250    0.0000 C   0  0  0  0  0  0  0  0  0  0  0  0
    2.1434    1.2375    0.0000 C   0  0  0  0  0  0  0  0  0  0  0  0
    2.8579    0.8250    0.0000 C   0  0  0  0  0  0  0  0  0  0  0  0
    3.5724    1.2375    0.0000 N   0  0  0  0  0  0  0  0  0  0  0  0
    3.5724    2.0625    0.0000 S   0  0  0  0  0  0  0  0  0  0  0  0
    3.5724    2.8875    0.0000 C   0  0  0  0  0  0  0  0  0  0  0  0
    4.3974    2.0625    0.0000 O   0  0  0  0  0  0  0  0  0  0  0  0
    2.7474    2.0625    0.0000 O   0  0  0  0  0  0  0  0  0  0  0  0
    2.8579    0.0000    0.0000 C   0  0  0  0  0  0  0  0  0  0  0  0
    2.1434   -0.4125    0.0000 C   0  0  0  0  0  0  0  0  0  0  0  0
    0.7145    1.2375    0.0000 O   0  0  0  0  0  0  0  0  0  0  0  0
    0.7145    2.0625    0.0000 C   0  0  0  0  0  0  0  0  0  0  0  0
    2.1434   -1.2375    0.0000 C   0  0  0  0  0  0  0  0  0  0  0  0
    2.8579   -1.6500    0.0000 C   0  0  0  0  0  0  0  0  0  0  0  0
    2.8579   -2.4750    0.0000 C   0  0  0  0  0  0  0  0  0  0  0  0
    2.1434   -2.8875    0.0000 C   0  0  0  0  0  0  0  0  0  0  0  0
  1  2  2  0  0  0  0
  2  3  1  0  0  0  0
  3  4  2  0  0  0  0
  4  5  1  0  0  0  0
  5  6  2  0  0  0  0
  6  7  1  0  0  0  0
  7  8  2  0  0  0  0
  8  9  1  0  0  0  0
  9 10  2  0  0  0  0
  1 10  1  0  0  0  0
  5 10  1  0  0  0  0
  9 11  1  0  0  0  0
 11 12  1  0  0  0  0
 12 13  2  0  0  0  0
 13 14  1  0  0  0  0
 14 15  2  0  0  0  0
 15 16  1  0  0  0  0
 16 17  1  0  0  0  0
 17 18  1  0  0  0  0
 17 19  2  0  0  0  0
 17 20  2  0  0  0  0
 15 21  1  0  0  0  0
 21 22  2  0  0  0  0
 12 22  1  0  0  0  0
 13 23  1  0  0  0  0
 23 24  1  0  0  0  0
  8 25  1  0  0  0  0
 25 26  2  0  0  0  0
 26 27  1  0  0  0  0
 27 28  2  0  0  0  0
  7 28  1  0  0  0  0
M  END
>  <Name>
Amsacrine

>  <CAS>
51264-14-3

>  <Formula>
C21H19N3O3S

>  <MolWt>
393.46 

>  <Bioactivity>
Aminoacridine derivative that is a potent intercalating antineoplastic agent. It is effective in the treatment of acute leukemias and malignant lymphomas, but has poor activity in the treatment of solid tumors. It is frequently used in combination with other antineoplastic agents in chemotherapy protocols. It produces consistent but acceptable myelosuppression and cardiotoxic effects. 

>  <Pathways>
DNA Damage/DNA Repair

>  <Target>
Potassium Channel inhibitor; Topoisomerase inhibitor

>  <Receptor>
Potassium Channel;topoisomerase II

>  <Reference>
1. Thomas D, et al. Br J Pharmacol. 2004 Jun;142(3):485-94.

$$$$
T0191
  Mrv1561503291623562D          

 35 39  0  0  0  0            999 V2000
   -1.8133   -5.4239    0.0000 C   0  0  0  0  0  0  0  0  0  0  0  0
   -1.5583   -4.6393    0.0000 C   0  0  0  0  0  0  0  0  0  0  0  0
   -1.3034   -3.8547    0.0000 C   0  0  0  0  0  0  0  0  0  0  0  0
   -1.0484   -3.0701    0.0000 C   0  0  0  0  0  0  0  0  0  0  0  0
   -1.6005   -2.4570    0.0000 N   0  0  0  0  0  0  0  0  0  0  0  0
   -1.4289   -1.6500    0.0000 C   0  0  0  0  0  0  0  0  0  0  0  0
   -2.1434   -1.2375    0.0000 C   0  0  0  0  0  0  0  0  0  0  0  0
   -2.7565   -1.7895    0.0000 N   0  0  0  0  0  0  0  0  0  0  0  0
   -2.4209   -2.5432    0.0000 C   0  0  0  0  0  0  0  0  0  0  0  0
   -2.8334   -3.2577    0.0000 N   0  0  0  0  0  0  0  0  0  0  0  0
   -2.4209   -3.9721    0.0000 C   0  0  0  0  0  0  0  0  0  0  0  0
   -2.8334   -4.6866    0.0000 C   0  0  0  0  0  0  0  0  0  0  0  0
   -3.6584   -4.6866    0.0000 C   0  0  0  0  0  0  0  0  0  0  0  0
   -4.0709   -3.9721    0.0000 C   0  0  0  0  0  0  0  0  0  0  0  0
   -3.6584   -3.2577    0.0000 C   0  0  0  0  0  0  0  0  0  0  0  0
   -4.8959   -3.9721    0.0000 N   0  0  0  0  0  0  0  0  0  0  0  0
   -2.1434   -0.4125    0.0000 N   0  0  0  0  0  0  0  0  0  0  0  0
   -1.4289   -0.0000    0.0000 C   0  0  0  0  0  0  0  0  0  0  0  0
   -1.4289    0.8250    0.0000 O   0  0  0  0  0  0  0  0  0  0  0  0
   -0.7145   -0.4125    0.0000 N   0  0  0  0  0  0  0  0  0  0  0  0
   -0.7145   -1.2375    0.0000 C   0  0  0  0  0  0  0  0  0  0  0  0
   -0.0000   -1.6500    0.0000 O   0  0  0  0  0  0  0  0  0  0  0  0
   -0.0000    0.0000    0.0000 C   0  0  0  0  0  0  0  0  0  0  0  0
    0.7145   -0.4125    0.0000 C   0  0  0  0  0  0  0  0  0  0  0  0
    1.4289   -0.0000    0.0000 N   0  0  0  0  0  0  0  0  0  0  0  0
    2.1434   -0.4125    0.0000 C   0  0  0  0  0  0  0  0  0  0  0  0
    2.8579   -0.0000    0.0000 C   0  0  0  0  0  0  0  0  0  0  0  0
    3.5724   -0.4125    0.0000 C   0  0  0  0  0  0  0  0  0  0  0  0
    3.5724   -1.2375    0.0000 C   0  0  0  0  0  0  0  0  0  0  0  0
    2.8579   -1.6500    0.0000 C   0  0  0  0  0  0  0  0  0  0  0  0
    2.1434   -1.2375    0.0000 C   0  0  0  0  0  0  0  0  0  0  0  0
    1.4289   -1.6500    0.0000 C   0  0  0  0  0  0  0  0  0  0  0  0
    0.7145   -1.2375    0.0000 N   0  0  0  0  0  0  0  0  0  0  0  0
    1.4289   -2.4750    0.0000 C   0  0  0  0  0  0  0  0  0  0  0  0
   -2.8579   -0.0000    0.0000 C   0  0  0  0  0  0  0  0  0  0  0  0
  1  2  1  0  0  0  0
  2  3  3  0  0  0  0
  3  4  1  0  0  0  0
  4  5  1  0  0  0  0
  5  6  1  0  0  0  0
  6  7  2  0  0  0  0
  7  8  1  0  0  0  0
  8  9  2  0  0  0  0
  5  9  1  0  0  0  0
  9 10  1  0  0  0  0
 10 11  1  0  0  0  0
 11 12  1  0  0  0  0
 12 13  1  0  0  0  0
 13 14  1  0  0  0  0
 14 15  1  0  0  0  0
 10 15  1  0  0  0  0
 14 16  1  0  0  0  0
  7 17  1  0  0  0  0
 17 18  1  0  0  0  0
 18 19  2  0  0  0  0
 18 20  1  0  0  0  0
 20 21  1  0  0  0  0
  6 21  1  0  0  0  0
 21 22  2  0  0  0  0
 20 23  1  0  0  0  0
 23 24  1  0  0  0  0
 24 25  2  0  0  0  0
 25 26  1  0  0  0  0
 26 27  2  0  0  0  0
 27 28  1  0  0  0  0
 28 29  2  0  0  0  0
 29 30  1  0  0  0  0
 30 31  2  0  0  0  0
 26 31  1  0  0  0  0
 31 32  1  0  0  0  0
 32 33  2  0  0  0  0
 24 33  1  0  0  0  0
 32 34  1  0  0  0  0
 17 35  1  0  0  0  0
M  END
>  <Name>
Linagliptin

>  <CAS>
668270-12-0

>  <Formula>
C25H28N8O2

>  <MolWt>
472.54 

>  <Bioactivity>
Linagliptin is a DPP-4 inhibitor developed by Boehringer Ingelheim for the treatment of type II diabetes . Two pharmacological characteristics that sets linagliptin apart from other DPP-4 inhibitors is that it has a non-linear pharmacokinetic profile and is not primarily eliminated by the renal system. FDA approved on May 2, 2011.

>  <Pathways>
Proteases/Proteasome

>  <Target>
DPP-4 inhibitor

>  <Receptor>
DPP-4

>  <Reference>
1. Forst T, Pfutzner A. Expert Opin Pharmacother. 2012 Jan;13(1):101-10. 

$$$$
152-11-4
  Mrv1561503291623562D          

 35 34  0  0  0  0            999 V2000
    0.4125    0.0000    0.0000 H   0  3  0  0  0  0  0  0  0  0  0  0
    4.1986   -1.7658    0.0000 C   0  0  0  0  0  0  0  0  0  0  0  0
    3.4841   -1.3533    0.0000 C   0  0  0  0  0  0  0  0  0  0  0  0
    3.4841   -0.5283    0.0000 C   0  0  0  0  0  0  0  0  0  0  0  0
    4.1986   -0.1158    0.0000 C   0  0  0  0  0  0  0  0  0  0  0  0
    4.9131   -0.5283    0.0000 C   0  0  0  0  0  0  0  0  0  0  0  0
    4.9131   -1.3533    0.0000 C   0  0  0  0  0  0  0  0  0  0  0  0
    5.6275   -0.1158    0.0000 C   0  0  0  0  0  0  0  0  0  0  0  0
    6.3420   -0.5283    0.0000 C   0  0  0  0  0  0  0  0  0  0  0  0
    7.0565   -0.1158    0.0000 N   0  0  0  0  0  0  0  0  0  0  0  0
    7.7709   -0.5283    0.0000 C   0  0  0  0  0  0  0  0  0  0  0  0
    8.4854   -0.1158    0.0000 C   0  0  0  0  0  0  0  0  0  0  0  0
    9.1999   -0.5283    0.0000 C   0  0  0  0  0  0  0  0  0  0  0  0
    9.9144   -0.1158    0.0000 C   0  0  0  0  0  0  0  0  0  0  0  0
   10.6288    0.2967    0.0000 C   0  0  0  0  0  0  0  0  0  0  0  0
   10.6288    1.1217    0.0000 C   0  0  0  0  0  0  0  0  0  0  0  0
   11.3433    1.5342    0.0000 C   0  0  0  0  0  0  0  0  0  0  0  0
   12.0578    1.1217    0.0000 C   0  0  0  0  0  0  0  0  0  0  0  0
   12.0578    0.2967    0.0000 C   0  0  0  0  0  0  0  0  0  0  0  0
   11.3433   -0.1158    0.0000 C   0  0  0  0  0  0  0  0  0  0  0  0
   12.7722    1.5342    0.0000 O   0  0  0  0  0  0  0  0  0  0  0  0
   13.4867    1.1217    0.0000 C   0  0  0  0  0  0  0  0  0  0  0  0
   11.3433    2.3592    0.0000 O   0  0  0  0  0  0  0  0  0  0  0  0
   12.0578    2.7717    0.0000 C   0  0  0  0  0  0  0  0  0  0  0  0
    9.5019    0.5986    0.0000 C   0  0  0  0  0  0  0  0  0  0  0  0
    9.0894    1.3131    0.0000 N   0  0  0  0  0  0  0  0  0  0  0  0
   10.3269   -0.8303    0.0000 C   0  0  0  0  0  0  0  0  0  0  0  0
   11.1519   -0.8303    0.0000 C   0  0  0  0  0  0  0  0  0  0  0  0
    9.9144   -1.5448    0.0000 C   0  0  0  0  0  0  0  0  0  0  0  0
    7.0565    0.7092    0.0000 C   0  0  0  0  0  0  0  0  0  0  0  0
    2.7696   -0.1158    0.0000 O   0  0  0  0  0  0  0  0  0  0  0  0
    2.7696    0.7092    0.0000 C   0  0  0  0  0  0  0  0  0  0  0  0
    2.7696   -1.7658    0.0000 O   0  0  0  0  0  0  0  0  0  0  0  0
    2.7696   -2.5908    0.0000 C   0  0  0  0  0  0  0  0  0  0  0  0
   -0.4125    0.0000    0.0000 Cl  0  5  0  0  0  0  0  0  0  0  0  0
  2  3  2  0  0  0  0
  3  4  1  0  0  0  0
  4  5  2  0  0  0  0
  5  6  1  0  0  0  0
  6  7  2  0  0  0  0
  2  7  1  0  0  0  0
  6  8  1  0  0  0  0
  8  9  1  0  0  0  0
  9 10  1  0  0  0  0
 10 11  1  0  0  0  0
 11 12  1  0  0  0  0
 12 13  1  0  0  0  0
 13 14  1  0  0  0  0
 14 15  1  0  0  0  0
 15 16  2  0  0  0  0
 16 17  1  0  0  0  0
 17 18  2  0  0  0  0
 18 19  1  0  0  0  0
 19 20  2  0  0  0  0
 15 20  1  0  0  0  0
 18 21  1  0  0  0  0
 21 22  1  0  0  0  0
 17 23  1  0  0  0  0
 23 24  1  0  0  0  0
 14 25  1  0  0  0  0
 25 26  3  0  0  0  0
 14 27  1  0  0  0  0
 27 28  1  0  0  0  0
 27 29  1  0  0  0  0
 10 30  1  0  0  0  0
  4 31  1  0  0  0  0
 31 32  1  0  0  0  0
  3 33  1  0  0  0  0
 33 34  1  0  0  0  0
M  CHG  2   1   1  35  -1
M  END
>  <Name>
Verapamil HCl

>  <CAS>
152-11-4

>  <Formula>
C27H39ClN2O4

>  <MolWt>
491.06 

>  <Bioactivity>
A calcium channel blocker that is a class IV anti-arrhythmia agent.

>  <Pathways>
Membrane Transporter/Ion Channel

>  <Target>
Calcium Channel inhibitor;MRP inhibitor;Potassium Channel inhibitor

>  <Receptor>
Calcium Channel ;Sodium-dependent serotonin transporter;MRP;Potassium Channel

>  <Reference>
1. Dilmac N, et al. Mol Pharmacol. 2004 Nov;66(5):1236-47. 

$$$$
123441-03-2
  Mrv1561503291623562D          

 18 18  0  0  1  0            999 V2000
   -4.2868    2.4750    0.0000 C   0  0  1  0  0  0  0  0  0  0  0  0
   -3.5724    2.0625    0.0000 C   0  0  0  0  0  0  0  0  0  0  0  0
   -2.8579    2.4750    0.0000 C   0  0  0  0  0  0  0  0  0  0  0  0
   -2.1434    2.0625    0.0000 C   0  0  0  0  0  0  0  0  0  0  0  0
   -2.1434    1.2375    0.0000 C   0  0  0  0  0  0  0  0  0  0  0  0
   -2.8579    0.8250    0.0000 C   0  0  0  0  0  0  0  0  0  0  0  0
   -3.5724    1.2375    0.0000 C   0  0  0  0  0  0  0  0  0  0  0  0
   -1.4289    2.4750    0.0000 O   0  0  0  0  0  0  0  0  0  0  0  0
   -0.7145    2.0625    0.0000 C   0  0  0  0  0  0  0  0  0  0  0  0
    0.0000    2.4750    0.0000 N   0  0  0  0  0  0  0  0  0  0  0  0
    0.7145    2.0625    0.0000 C   0  0  0  0  0  0  0  0  0  0  0  0
    1.4289    2.4750    0.0000 C   0  0  0  0  0  0  0  0  0  0  0  0
    0.0000    3.3000    0.0000 C   0  0  0  0  0  0  0  0  0  0  0  0
   -0.7145    1.2375    0.0000 O   0  0  0  0  0  0  0  0  0  0  0  0
   -4.2868    3.3000    0.0000 N   0  0  0  0  0  0  0  0  0  0  0  0
   -5.0013    3.7125    0.0000 C   0  0  0  0  0  0  0  0  0  0  0  0
   -3.5724    3.7125    0.0000 C   0  0  0  0  0  0  0  0  0  0  0  0
   -5.0013    2.0625    0.0000 C   0  0  0  0  0  0  0  0  0  0  0  0
  1  2  1  0  0  0  0
  2  3  2  0  0  0  0
  3  4  1  0  0  0  0
  4  5  2  0  0  0  0
  5  6  1  0  0  0  0
  6  7  2  0  0  0  0
  2  7  1  0  0  0  0
  4  8  1  0  0  0  0
  8  9  1  0  0  0  0
  9 10  1  0  0  0  0
 10 11  1  0  0  0  0
 11 12  1  0  0  0  0
 10 13  1  0  0  0  0
  9 14  2  0  0  0  0
  1 15  1  0  0  0  0
 15 16  1  0  0  0  0
 15 17  1  0  0  0  0
  1 18  1  6  0  0  0
M  END
>  <Name>
Rivastigmine

>  <CAS>
123441-03-2

>  <Formula>
C14H22N2O2

>  <MolWt>
250.34 

>  <Bioactivity>
Rivastigmine is a parasympathomimetic or cholinergic agent for the treatment of mild to moderate dementia of the Alzheimer's type. Rivastigmine is a cholinesterase inhibitor that inhibits both butyrylcholinesterase and acetylcholinesterase. 

>  <Pathways>
Neuroscience

>  <Target>
AChE inhibitor

>  <Receptor>
AChE

>  <Reference>
1. Kennedy JS, et al. J Clin Psychopharmacol. 1999 Dec;19(6):513-21.

$$$$
304-84-7
  Mrv1561503291623562D          

 16 16  0  0  0  0            999 V2000
    1.4289    0.8250    0.0000 C   0  0  0  0  0  0  0  0  0  0  0  0
    1.4289    0.0000    0.0000 C   0  0  0  0  0  0  0  0  0  0  0  0
    2.1434   -0.4125    0.0000 C   0  0  0  0  0  0  0  0  0  0  0  0
    2.1434   -1.2375    0.0000 N   0  0  0  0  0  0  0  0  0  0  0  0
    2.8579   -1.6500    0.0000 C   0  0  0  0  0  0  0  0  0  0  0  0
    2.8579   -2.4750    0.0000 C   0  0  0  0  0  0  0  0  0  0  0  0
    1.4289   -1.6500    0.0000 C   0  0  0  0  0  0  0  0  0  0  0  0
    1.4289   -2.4750    0.0000 C   0  0  0  0  0  0  0  0  0  0  0  0
    2.8579   -0.0000    0.0000 O   0  0  0  0  0  0  0  0  0  0  0  0
    0.7145   -0.4125    0.0000 C   0  0  0  0  0  0  0  0  0  0  0  0
   -0.0000    0.0000    0.0000 C   0  0  0  0  0  0  0  0  0  0  0  0
   -0.0000    0.8250    0.0000 C   0  0  0  0  0  0  0  0  0  0  0  0
    0.7145    1.2375    0.0000 C   0  0  0  0  0  0  0  0  0  0  0  0
    0.7145    2.0625    0.0000 O   0  0  0  0  0  0  0  0  0  0  0  0
    0.0000    2.4750    0.0000 C   0  0  0  0  0  0  0  0  0  0  0  0
   -0.7145    1.2375    0.0000 O   0  0  0  0  0  0  0  0  0  0  0  0
  1  2  2  0  0  0  0
  2  3  1  0  0  0  0
  3  4  1  0  0  0  0
  4  5  1  0  0  0  0
  5  6  1  0  0  0  0
  4  7  1  0  0  0  0
  7  8  1  0  0  0  0
  3  9  2  0  0  0  0
  2 10  1  0  0  0  0
 10 11  2  0  0  0  0
 11 12  1  0  0  0  0
 12 13  2  0  0  0  0
  1 13  1  0  0  0  0
 13 14  1  0  0  0  0
 14 15  1  0  0  0  0
 12 16  1  0  0  0  0
M  END
>  <Name>
Ethamivan

>  <CAS>
304-84-7

>  <Formula>
C12H17NO3

>  <MolWt>
223.27 

>  <Bioactivity>
Etamivan (INN) or ethamivan (USAN), trade name Analepticon, is a respiratory stimulant drug related to nikethamide. It is no longer used in the United States. 

>  <Pathways>
Others

>  <Target>
Others

>  <Receptor>
Others

>  <Reference>
1. Hirsh K, Wang SC. J Pharmacol Exp Ther. 1975 May; 193(2):657-63.

$$$$
547-44-4
  Mrv1561503291623562D          

 14 14  0  0  0  0            999 V2000
    1.4289   -0.0000    0.0000 C   0  0  0  0  0  0  0  0  0  0  0  0
    0.7145   -0.4125    0.0000 C   0  0  0  0  0  0  0  0  0  0  0  0
    0.7145   -1.2375    0.0000 S   0  0  0  0  0  0  0  0  0  0  0  0
    0.7145   -2.0625    0.0000 N   0  0  0  0  0  0  0  0  0  0  0  0
    1.4289   -2.4750    0.0000 C   0  0  0  0  0  0  0  0  0  0  0  0
    1.4289   -3.3000    0.0000 N   0  0  0  0  0  0  0  0  0  0  0  0
    2.1434   -2.0625    0.0000 O   0  0  0  0  0  0  0  0  0  0  0  0
    1.5395   -1.2375    0.0000 O   0  0  0  0  0  0  0  0  0  0  0  0
   -0.1105   -1.2375    0.0000 O   0  0  0  0  0  0  0  0  0  0  0  0
   -0.0000   -0.0000    0.0000 C   0  0  0  0  0  0  0  0  0  0  0  0
   -0.0000    0.8250    0.0000 C   0  0  0  0  0  0  0  0  0  0  0  0
    0.7145    1.2375    0.0000 C   0  0  0  0  0  0  0  0  0  0  0  0
    1.4289    0.8250    0.0000 C   0  0  0  0  0  0  0  0  0  0  0  0
    0.7145    2.0625    0.0000 N   0  0  0  0  0  0  0  0  0  0  0  0
  1  2  2  0  0  0  0
  2  3  1  0  0  0  0
  3  4  1  0  0  0  0
  4  5  1  0  0  0  0
  5  6  1  0  0  0  0
  5  7  2  0  0  0  0
  3  8  2  0  0  0  0
  3  9  2  0  0  0  0
  2 10  1  0  0  0  0
 10 11  2  0  0  0  0
 11 12  1  0  0  0  0
 12 13  2  0  0  0  0
  1 13  1  0  0  0  0
 12 14  1  0  0  0  0
M  END
>  <Name>
Sulfanilylurea

>  <CAS>
547-44-4

>  <Formula>
C7H9N3O3S

>  <MolWt>
215.23 

>  <Bioactivity>
Its molecular fomula is C7H9N3O3S.

>  <Pathways>
Others

>  <Target>
Others

>  <Receptor>
Others

>  <Reference>
1. Otto W, et al. Zentralbl Gynakol. 1971 Apr 24; 93(17):552-7.

$$$$
T0261
  Mrv1561503291623562D          

 36 41  0  0  1  0            999 V2000
    3.6404   -0.1234    0.0000 C   0  0  1  0  0  0  0  0  0  0  0  0
    4.0083    0.6150    0.0000 C   0  0  0  0  0  0  0  0  0  0  0  0
    4.8242    0.4933    0.0000 C   0  0  2  0  0  0  0  0  0  0  0  0
    5.5559    0.8745    0.0000 O   0  0  0  0  0  0  0  0  0  0  0  0
    6.1445    0.2964    0.0000 C   0  0  0  0  0  0  0  0  0  0  0  0
    5.7766   -0.4420    0.0000 O   0  0  0  0  0  0  0  0  0  0  0  0
    4.9607   -0.3203    0.0000 C   0  0  2  0  0  0  0  0  0  0  0  0
    4.2290   -0.7015    0.0000 C   0  0  0  0  0  0  0  0  0  0  0  0
    6.5124    1.0349    0.0000 C   0  0  0  0  0  0  0  0  0  0  0  0
    7.3284    0.9132    0.0000 C   0  0  0  0  0  0  0  0  0  0  0  0
    7.4648    0.0996    0.0000 C   0  0  0  0  0  0  0  0  0  0  0  0
    6.7331   -0.2816    0.0000 C   0  0  0  0  0  0  0  0  0  0  0  0
    4.6878    1.3070    0.0000 C   0  0  0  0  0  0  0  0  0  0  0  0
    4.0420    1.8203    0.0000 O   0  0  0  0  0  0  0  0  0  0  0  0
    5.3242    1.8319    0.0000 C   0  0  0  0  0  0  0  0  0  0  0  0
    5.1878    2.6456    0.0000 O   0  0  0  0  0  0  0  0  0  0  0  0
    5.8242    3.1706    0.0000 C   0  0  0  0  0  0  0  0  0  0  0  0
    5.6878    3.9842    0.0000 O   0  0  0  0  0  0  0  0  0  0  0  0
    6.5971    2.8819    0.0000 C   0  0  0  0  0  0  0  0  0  0  0  0
    3.5527    1.3028    0.0000 C   0  0  0  0  0  0  0  0  0  0  0  0
    2.7292    1.2522    0.0000 C   0  0  2  0  0  0  0  0  0  0  0  0
    2.2737    1.9400    0.0000 O   0  0  0  0  0  0  0  0  0  0  0  0
    2.3614    0.5138    0.0000 C   0  0  1  0  0  0  0  0  0  0  0  0
    1.9058    1.2016    0.0000 F   0  0  0  0  0  0  0  0  0  0  0  0
    2.8169   -0.1741    0.0000 C   0  0  0  0  0  0  0  0  0  0  0  0
    2.4491   -0.9125    0.0000 C   0  0  0  0  0  0  0  0  0  0  0  0
    1.6256   -0.9631    0.0000 C   0  0  0  0  0  0  0  0  0  0  0  0
    1.1700   -0.2753    0.0000 C   0  0  0  0  0  0  0  0  0  0  0  0
    0.3466   -0.3259    0.0000 C   0  0  0  0  0  0  0  0  0  0  0  0
   -0.1090    0.3619    0.0000 C   0  0  0  0  0  0  0  0  0  0  0  0
   -0.9324    0.3112    0.0000 O   0  0  0  0  0  0  0  0  0  0  0  0
    0.2589    1.1003    0.0000 C   0  0  0  0  0  0  0  0  0  0  0  0
    1.0823    1.1509    0.0000 C   0  0  0  0  0  0  0  0  0  0  0  0
    1.5379    0.4631    0.0000 C   0  0  0  0  0  0  0  0  0  0  0  0
    1.4015    1.2768    0.0000 C   0  0  0  0  0  0  0  0  0  0  0  0
    4.2146    1.4138    0.0000 C   0  0  0  0  0  0  0  0  0  0  0  0
  1  2  1  0  0  0  0
  2  3  1  0  0  0  0
  3  4  1  0  0  0  0
  4  5  1  0  0  0  0
  5  6  1  0  0  0  0
  7  6  1  6  0  0  0
  3  7  1  0  0  0  0
  7  8  1  0  0  0  0
  1  8  1  1  0  0  0
  5  9  1  0  0  0  0
  9 10  1  0  0  0  0
 10 11  1  0  0  0  0
 11 12  1  0  0  0  0
  5 12  1  0  0  0  0
  3 13  1  1  0  0  0
 13 14  2  0  0  0  0
 13 15  1  0  0  0  0
 15 16  1  0  0  0  0
 16 17  1  0  0  0  0
 17 18  2  0  0  0  0
 17 19  1  0  0  0  0
  2 20  1  0  0  0  0
 20 21  1  0  0  0  0
 21 22  1  1  0  0  0
 21 23  1  0  0  0  0
 23 24  1  6  0  0  0
 23 25  1  0  0  0  0
  1 25  1  0  0  0  0
 25 26  1  0  0  0  0
 26 27  1  0  0  0  0
 27 28  1  0  0  0  0
 28 29  2  0  0  0  0
 29 30  1  0  0  0  0
 30 31  2  0  0  0  0
 30 32  1  0  0  0  0
 32 33  2  0  0  0  0
 33 34  1  0  0  0  0
 23 34  1  0  0  0  0
 28 34  1  0  0  0  0
 34 35  1  0  0  0  0
  2 36  1  0  0  0  0
M  END
>  <Name>
Amcinonide

>  <CAS>
51022-69-6

>  <Formula>
C28H35FO7

>  <MolWt>
502.57 

>  <Bioactivity>
Amcinonide is a corticosteroid. 

>  <Pathways>
Endocrinology/ Hormones

>  <Target>
Annexin A agonist;Glucocorticoid receptor agonist

>  <Receptor>
Annexin A1;Glucocorticoid receptor

>  <Reference>
1. Grossman R, et al. Ann N Y Acad Sci. 2006 Jul;1071:410-21.

$$$$
70-18-8
  Mrv1561503291623562D          

 20 19  0  0  0  0            999 V2000
    9.0454    2.7474    0.0000 C   0  0  0  0  0  0  0  0  0  0  0  0
    9.0454    3.5724    0.0000 C   0  0  0  0  0  0  0  0  0  0  0  0
    8.3309    3.9849    0.0000 C   0  0  0  0  0  0  0  0  0  0  0  0
    7.6164    3.5724    0.0000 N   0  0  0  0  0  0  0  0  0  0  0  0
    6.9020    3.9849    0.0000 C   0  0  0  0  0  0  0  0  0  0  0  0
    6.1875    3.5724    0.0000 C   0  0  0  0  0  0  0  0  0  0  0  0
    5.4730    3.9849    0.0000 O   0  0  0  0  0  0  0  0  0  0  0  0
    6.1875    2.7474    0.0000 O   0  0  0  0  0  0  0  0  0  0  0  0
    8.3309    4.8099    0.0000 O   0  0  0  0  0  0  0  0  0  0  0  0
    9.7599    3.9849    0.0000 N   0  0  0  0  0  0  0  0  0  0  0  0
   10.4743    3.5724    0.0000 C   0  0  0  0  0  0  0  0  0  0  0  0
   11.1888    3.9849    0.0000 C   0  0  0  0  0  0  0  0  0  0  0  0
   11.9033    3.5724    0.0000 C   0  0  0  0  0  0  0  0  0  0  0  0
   12.6177    3.9849    0.0000 C   0  0  0  0  0  0  0  0  0  0  0  0
   13.3322    3.5724    0.0000 C   0  0  0  0  0  0  0  0  0  0  0  0
   14.0467    3.9849    0.0000 O   0  0  0  0  0  0  0  0  0  0  0  0
   13.3322    2.7474    0.0000 O   0  0  0  0  0  0  0  0  0  0  0  0
   12.6177    4.8099    0.0000 N   0  0  0  0  0  0  0  0  0  0  0  0
   10.4743    2.7474    0.0000 O   0  0  0  0  0  0  0  0  0  0  0  0
    9.7599    2.3349    0.0000 S   0  0  0  0  0  0  0  0  0  0  0  0
  1  2  1  0  0  0  0
  2  3  1  0  0  0  0
  3  4  1  0  0  0  0
  4  5  1  0  0  0  0
  5  6  1  0  0  0  0
  6  7  2  0  0  0  0
  6  8  1  0  0  0  0
  3  9  2  0  0  0  0
  2 10  1  0  0  0  0
 10 11  1  0  0  0  0
 11 12  1  0  0  0  0
 12 13  1  0  0  0  0
 13 14  1  0  0  0  0
 14 15  1  0  0  0  0
 15 16  1  0  0  0  0
 15 17  2  0  0  0  0
 14 18  1  0  0  0  0
 11 19  2  0  0  0  0
  1 20  1  0  0  0  0
M  END
>  <Name>
Glutathione

>  <CAS>
70-18-8

>  <Formula>
C10H17N3O6S

>  <MolWt>
307.33 

>  <Bioactivity>
A tripeptide with many roles in cells. It conjugates to drugs to make them more soluble for excretion, is a cofactor for some enzymes, is involved in protein disulfide bond rearrangement and reduces peroxides.


>  <Pathways>
Metabolism

>  <Target>
Glutathione reductase

>  <Receptor>
Glutathione reductase

>  <Reference>
1. Messarah M, et al. C R Biol. 2007 Feb; 330(2):107-12. 

$$$$
63659-19-8
  Mrv1561503291623562D          

 24 23  0  0  0  0            999 V2000
    0.4125    0.0000    0.0000 H   0  3  0  0  0  0  0  0  0  0  0  0
    6.4525   -0.2675    0.0000 C   0  0  0  0  0  0  0  0  0  0  0  0
    5.7381    0.1450    0.0000 C   0  0  0  0  0  0  0  0  0  0  0  0
    5.0236   -0.2675    0.0000 C   0  0  0  0  0  0  0  0  0  0  0  0
    5.0236   -1.0925    0.0000 C   0  0  0  0  0  0  0  0  0  0  0  0
    4.3091   -1.5050    0.0000 O   0  0  0  0  0  0  0  0  0  0  0  0
    4.3091   -2.3300    0.0000 C   0  0  0  0  0  0  0  0  0  0  0  0
    3.5946   -2.7425    0.0000 C   0  0  0  0  0  0  0  0  0  0  0  0
    3.1821   -3.4570    0.0000 C   0  0  0  0  0  0  0  0  0  0  0  0
    2.7696   -2.7425    0.0000 C   0  0  0  0  0  0  0  0  0  0  0  0
    5.7381    0.9700    0.0000 C   0  0  0  0  0  0  0  0  0  0  0  0
    6.4525    1.3825    0.0000 C   0  0  0  0  0  0  0  0  0  0  0  0
    7.1670    0.9700    0.0000 C   0  0  0  0  0  0  0  0  0  0  0  0
    7.1670    0.1450    0.0000 C   0  0  0  0  0  0  0  0  0  0  0  0
    7.8815    1.3825    0.0000 O   0  0  0  0  0  0  0  0  0  0  0  0
    8.5959    0.9700    0.0000 C   0  0  0  0  0  0  0  0  0  0  0  0
    9.3104    1.3825    0.0000 C   0  0  0  0  0  0  0  0  0  0  0  0
    9.3104    2.2075    0.0000 O   0  0  0  0  0  0  0  0  0  0  0  0
   10.0249    0.9700    0.0000 C   0  0  0  0  0  0  0  0  0  0  0  0
   10.7394    1.3825    0.0000 N   0  0  0  0  0  0  0  0  0  0  0  0
   11.4538    0.9700    0.0000 C   0  0  0  0  0  0  0  0  0  0  0  0
   12.1683    1.3825    0.0000 C   0  0  0  0  0  0  0  0  0  0  0  0
   11.4538    0.1450    0.0000 C   0  0  0  0  0  0  0  0  0  0  0  0
   -0.4125    0.0000    0.0000 Cl  0  5  0  0  0  0  0  0  0  0  0  0
  2  3  2  0  0  0  0
  3  4  1  0  0  0  0
  4  5  1  0  0  0  0
  5  6  1  0  0  0  0
  6  7  1  0  0  0  0
  7  8  1  0  0  0  0
  8  9  1  0  0  0  0
  9 10  1  0  0  0  0
  8 10  1  0  0  0  0
  3 11  1  0  0  0  0
 11 12  2  0  0  0  0
 12 13  1  0  0  0  0
 13 14  2  0  0  0  0
  2 14  1  0  0  0  0
 13 15  1  0  0  0  0
 15 16  1  0  0  0  0
 16 17  1  0  0  0  0
 17 18  1  0  0  0  0
 17 19  1  0  0  0  0
 19 20  1  0  0  0  0
 20 21  1  0  0  0  0
 21 22  1  0  0  0  0
 21 23  1  0  0  0  0
M  CHG  2   1   1  24  -1
M  END
>  <Name>
Betaxolol HCl

>  <CAS>
63659-19-8

>  <Formula>
C18H30ClNO3

>  <MolWt>
343.89 

>  <Bioactivity>
A cardioselective beta-1-adrenergic antagonist with no partial agonist activity.

>  <Pathways>
GPCR/G Protein

>  <Target>
Adrenergic Receptor antagonist

>  <Receptor>
?-adrenergic receptor

>  <Reference>
1. Tang LQ, et al. Curr Eye Res, 1998, 17(1), 24-30.

$$$$
22888-70-6
  Mrv1561503291623562D          

 35 39  0  0  0  0            999 V2000
   -5.7158   -1.6500    0.0000 C   0  0  0  0  0  0  0  0  0  0  0  0
   -6.4302   -1.2375    0.0000 C   0  0  0  0  0  0  0  0  0  0  0  0
   -6.4302   -0.4125    0.0000 C   0  0  0  0  0  0  0  0  0  0  0  0
   -5.7158   -0.0000    0.0000 C   0  0  0  0  0  0  0  0  0  0  0  0
   -5.0013   -0.4125    0.0000 C   0  0  0  0  0  0  0  0  0  0  0  0
   -5.0013   -1.2375    0.0000 C   0  0  0  0  0  0  0  0  0  0  0  0
   -4.2868   -1.6500    0.0000 C   0  0  0  0  0  0  0  0  0  0  0  0
   -4.2868   -2.4750    0.0000 C   0  0  0  0  0  0  0  0  0  0  0  0
   -3.5724   -2.8875    0.0000 O   0  0  0  0  0  0  0  0  0  0  0  0
   -2.8579   -2.4750    0.0000 C   0  0  0  0  0  0  0  0  0  0  0  0
   -2.8579   -1.6500    0.0000 C   0  0  0  0  0  0  0  0  0  0  0  0
   -3.5724   -1.2375    0.0000 O   0  0  0  0  0  0  0  0  0  0  0  0
   -2.1434   -1.2375    0.0000 C   0  0  0  0  0  0  0  0  0  0  0  0
   -1.4289   -1.6500    0.0000 C   0  0  0  0  0  0  0  0  0  0  0  0
   -0.7145   -1.2375    0.0000 C   0  0  0  0  0  0  0  0  0  0  0  0
   -0.0000   -1.6500    0.0000 O   0  0  0  0  0  0  0  0  0  0  0  0
    0.7145   -1.2375    0.0000 C   0  0  0  0  0  0  0  0  0  0  0  0
    0.7145   -0.4125    0.0000 C   0  0  0  0  0  0  0  0  0  0  0  0
    1.4289    0.0000    0.0000 C   0  0  0  0  0  0  0  0  0  0  0  0
    2.1434   -0.4125    0.0000 C   0  0  0  0  0  0  0  0  0  0  0  0
    2.1434   -1.2375    0.0000 C   0  0  0  0  0  0  0  0  0  0  0  0
    1.4289   -1.6500    0.0000 C   0  0  0  0  0  0  0  0  0  0  0  0
    2.8579   -1.6500    0.0000 O   0  0  0  0  0  0  0  0  0  0  0  0
    1.4289    0.8250    0.0000 O   0  0  0  0  0  0  0  0  0  0  0  0
   -0.0000    0.0000    0.0000 C   0  0  0  0  0  0  0  0  0  0  0  0
   -0.7145   -0.4125    0.0000 C   0  0  0  0  0  0  0  0  0  0  0  0
   -1.4289   -0.0000    0.0000 O   0  0  0  0  0  0  0  0  0  0  0  0
   -0.0000    0.8250    0.0000 O   0  0  0  0  0  0  0  0  0  0  0  0
   -1.4289   -2.4750    0.0000 C   0  0  0  0  0  0  0  0  0  0  0  0
   -2.1434   -2.8875    0.0000 C   0  0  0  0  0  0  0  0  0  0  0  0
   -5.0013   -2.8875    0.0000 C   0  0  0  0  0  0  0  0  0  0  0  0
   -5.0013   -3.7125    0.0000 O   0  0  0  0  0  0  0  0  0  0  0  0
   -7.1447   -0.0000    0.0000 O   0  0  0  0  0  0  0  0  0  0  0  0
   -7.1447   -1.6500    0.0000 O   0  0  0  0  0  0  0  0  0  0  0  0
   -7.8592   -1.2375    0.0000 C   0  0  0  0  0  0  0  0  0  0  0  0
  1  2  2  0  0  0  0
  2  3  1  0  0  0  0
  3  4  2  0  0  0  0
  4  5  1  0  0  0  0
  5  6  2  0  0  0  0
  1  6  1  0  0  0  0
  6  7  1  0  0  0  0
  7  8  1  0  0  0  0
  8  9  1  0  0  0  0
  9 10  1  0  0  0  0
 10 11  2  0  0  0  0
 11 12  1  0  0  0  0
  7 12  1  0  0  0  0
 11 13  1  0  0  0  0
 13 14  2  0  0  0  0
 14 15  1  0  0  0  0
 15 16  1  0  0  0  0
 16 17  1  0  0  0  0
 17 18  2  0  0  0  0
 18 19  1  0  0  0  0
 19 20  2  0  0  0  0
 20 21  1  0  0  0  0
 21 22  2  0  0  0  0
 17 22  1  0  0  0  0
 21 23  1  0  0  0  0
 19 24  1  0  0  0  0
 18 25  1  0  0  0  0
 25 26  1  0  0  0  0
 15 26  1  0  0  0  0
 26 27  1  0  0  0  0
 25 28  2  0  0  0  0
 14 29  1  0  0  0  0
 29 30  2  0  0  0  0
 10 30  1  0  0  0  0
  8 31  1  0  0  0  0
 31 32  1  0  0  0  0
  3 33  1  0  0  0  0
  2 34  1  0  0  0  0
 34 35  1  0  0  0  0
M  END
>  <Name>
Silibinin

>  <CAS>
22888-70-6

>  <Formula>
C25H22O10

>  <MolWt>
482.44 

>  <Bioactivity>
Silibinin, the main flavonoid extracted from the milk thistle Silybum marianum, displays hepatoprotective properties in acute and chronic liver injury.

>  <Pathways>
Others

>  <Target>
Others

>  <Receptor>
Others

>  <Reference>
1. Al-Anati L, et al. Mol Nutr Food Res, 2009, 53(4), 460-466.

$$$$
T1227
  Mrv1561503291623562D          

 35 37  0  0  1  0            999 V2000
   -2.8579    0.8250    0.0000 C   0  0  2  0  0  0  0  0  0  0  0  0
   -2.1434    1.2375    0.0000 N   0  0  0  0  0  0  0  0  0  0  0  0
   -1.4289    0.8250    0.0000 C   0  0  0  0  0  0  0  0  0  0  0  0
   -1.4289    0.0000    0.0000 C   0  0  0  0  0  0  0  0  0  0  0  0
   -0.7145   -0.4125    0.0000 C   0  0  0  0  0  0  0  0  0  0  0  0
   -0.7145   -1.2375    0.0000 O   0  0  0  0  0  0  0  0  0  0  0  0
    0.0000   -1.6500    0.0000 C   0  0  0  0  0  0  0  0  0  0  0  0
    0.7145   -1.2375    0.0000 N   0  0  0  0  0  0  0  0  0  0  0  0
   -0.0000   -2.4750    0.0000 O   0  0  0  0  0  0  0  0  0  0  0  0
   -2.1434   -0.4125    0.0000 C   0  0  0  0  0  0  0  0  0  0  0  0
   -2.8579    0.0000    0.0000 S   0  0  0  0  0  0  0  0  0  0  0  0
   -0.7145    1.2375    0.0000 C   0  0  0  0  0  0  0  0  0  0  0  0
    0.0000    0.8250    0.0000 O   0  0  0  0  0  0  0  0  0  0  0  0
    0.7145    1.2375    0.0000 C   0  0  0  0  0  0  0  0  0  0  0  0
    1.4289    0.8250    0.0000 O   0  0  0  0  0  0  0  0  0  0  0  0
    2.1434    1.2375    0.0000 C   0  0  0  0  0  0  0  0  0  0  0  0
    2.8579    0.8250    0.0000 C   0  0  0  0  0  0  0  0  0  0  0  0
    2.1434    2.0625    0.0000 O   0  0  0  0  0  0  0  0  0  0  0  0
    0.7145    2.0625    0.0000 C   0  0  0  0  0  0  0  0  0  0  0  0
   -0.7145    2.0625    0.0000 O   0  0  0  0  0  0  0  0  0  0  0  0
   -2.5559    1.9520    0.0000 C   0  0  0  0  0  0  0  0  0  0  0  0
   -2.3424    2.7489    0.0000 O   0  0  0  0  0  0  0  0  0  0  0  0
   -3.2704    1.5395    0.0000 C   0  0  1  0  0  0  0  0  0  0  0  0
   -4.0673    1.7530    0.0000 N   0  0  0  0  0  0  0  0  0  0  0  0
   -4.6506    1.1696    0.0000 C   0  0  0  0  0  0  0  0  0  0  0  0
   -5.4475    1.3832    0.0000 C   0  0  0  0  0  0  0  0  0  0  0  0
   -6.0309    0.7998    0.0000 C   0  0  0  0  0  0  0  0  0  0  0  0
   -5.9018   -0.0150    0.0000 C   0  0  0  0  0  0  0  0  0  0  0  0
   -6.6369   -0.3896    0.0000 C   0  0  0  0  0  0  0  0  0  0  0  0
   -7.2203    0.1938    0.0000 C   0  0  0  0  0  0  0  0  0  0  0  0
   -6.8457    0.9289    0.0000 O   0  0  0  0  0  0  0  0  0  0  0  0
   -5.6611    2.1800    0.0000 N   0  0  0  0  0  0  0  0  0  0  0  0
   -5.0777    2.7634    0.0000 O   0  0  0  0  0  0  0  0  0  0  0  0
   -5.2912    3.5603    0.0000 C   0  0  0  0  0  0  0  0  0  0  0  0
   -4.4371    0.3727    0.0000 O   0  0  0  0  0  0  0  0  0  0  0  0
  1  2  1  6  0  0  0
  2  3  1  0  0  0  0
  3  4  2  0  0  0  0
  4  5  1  0  0  0  0
  5  6  1  0  0  0  0
  6  7  1  0  0  0  0
  7  8  1  0  0  0  0
  7  9  2  0  0  0  0
  4 10  1  0  0  0  0
 10 11  1  0  0  0  0
  1 11  1  0  0  0  0
  3 12  1  0  0  0  0
 12 13  1  0  0  0  0
 13 14  1  0  0  0  0
 14 15  1  0  0  0  0
 15 16  1  0  0  0  0
 16 17  1  0  0  0  0
 16 18  2  0  0  0  0
 14 19  1  0  0  0  0
 12 20  2  0  0  0  0
  2 21  1  0  0  0  0
 21 22  2  0  0  0  0
 21 23  1  0  0  0  0
  1 23  1  0  0  0  0
 23 24  1  6  0  0  0
 24 25  1  0  0  0  0
 25 26  1  0  0  0  0
 26 27  1  0  0  0  0
 27 28  2  0  0  0  0
 28 29  1  0  0  0  0
 29 30  2  0  0  0  0
 30 31  1  0  0  0  0
 27 31  1  0  0  0  0
 26 32  2  0  0  0  0
 32 33  1  0  0  0  0
 33 34  1  0  0  0  0
 25 35  2  0  0  0  0
M  END
>  <Name>
Cepazine

>  <CAS>
64544-07-6

>  <Formula>
C20H22N4O10S

>  <MolWt>
510.47 

>  <Bioactivity>
Cefuroxime axetil is a second generation oral cephalosporin antibiotic. It was discovered by Glaxo now GlaxoSmithKline and introduced in 1987 as Zinnat. 

>  <Pathways>
Microbiology & Virology

>  <Target>
Antibiotic

>  <Receptor>
Others

>  <Reference>
1. Singh B, et al. Colloids Surf B Biointerfaces. 2014 Sep 1;121:92-8. 

$$$$
65-19-0
  Mrv1561503291623562D          

 28 30  0  0  1  0            999 V2000
    1.2307    0.0150    0.0000 C   0  0  0  0  0  0  0  0  0  0  0  0
    1.5029   -0.7638    0.0000 C   0  0  0  0  0  0  0  0  0  0  0  0
    0.9645   -1.3889    0.0000 C   0  0  0  0  0  0  0  0  0  0  0  0
    0.1539   -1.2351    0.0000 N   0  0  0  0  0  0  0  0  0  0  0  0
   -0.1182   -0.4563    0.0000 C   0  0  0  0  0  0  0  0  0  0  0  0
    0.4202    0.1688    0.0000 C   0  0  0  0  0  0  0  0  0  0  0  0
   -0.9288   -0.3026    0.0000 C   0  0  0  0  0  0  0  0  0  0  0  0
   -1.4672   -0.9277    0.0000 C   0  0  0  0  0  0  0  0  0  0  0  0
   -1.1950   -1.7065    0.0000 C   0  0  0  0  0  0  0  0  0  0  0  0
   -0.3845   -1.8602    0.0000 C   0  0  0  0  0  0  0  0  0  0  0  0
   -2.2281   -0.6088    0.0000 C   0  0  0  0  0  0  0  0  0  0  0  0
   -2.9742   -0.9609    0.0000 C   0  0  0  0  0  0  0  0  0  0  0  0
   -3.6521   -0.4907    0.0000 C   0  0  0  0  0  0  0  0  0  0  0  0
   -3.5840    0.3314    0.0000 C   0  0  0  0  0  0  0  0  0  0  0  0
   -2.8378    0.6835    0.0000 C   0  0  0  0  0  0  0  0  0  0  0  0
   -2.1599    0.2134    0.0000 C   0  0  0  0  0  0  0  0  0  0  0  0
   -1.3569    0.4026    0.0000 N   0  0  0  0  0  0  0  0  0  0  0  0
    2.3134   -0.9175    0.0000 C   0  0  0  0  0  0  0  0  0  0  0  0
    2.8518   -0.2924    0.0000 C   0  0  0  0  0  0  0  0  0  0  0  0
    2.5797    0.4864    0.0000 C   0  0  0  0  0  0  0  0  0  0  0  0
    3.1181    1.1115    0.0000 O   0  0  0  0  0  0  0  0  0  0  0  0
    1.7691    0.6401    0.0000 C   0  0  0  0  0  0  0  0  0  0  0  0
    1.4970    1.4190    0.0000 C   0  0  0  0  0  0  0  0  0  0  0  0
    2.0354    2.0441    0.0000 O   0  0  0  0  0  0  0  0  0  0  0  0
    1.7633    2.8229    0.0000 C   0  0  0  0  0  0  0  0  0  0  0  0
    0.6865    1.5727    0.0000 O   0  0  0  0  0  0  0  0  0  0  0  0
    6.3002    0.0000    0.0000 H   0  3  0  0  0  0  0  0  0  0  0  0
    5.4752    0.0000    0.0000 Cl  0  5  0  0  0  0  0  0  0  0  0  0
  1  2  1  0  0  0  0
  2  3  1  0  0  0  0
  3  4  1  0  0  0  0
  4  5  1  0  0  0  0
  5  6  1  0  0  0  0
  1  6  1  0  0  0  0
  5  7  1  0  0  0  0
  7  8  2  0  0  0  0
  8  9  1  0  0  0  0
  9 10  1  0  0  0  0
  4 10  1  0  0  0  0
  8 11  1  0  0  0  0
 11 12  2  0  0  0  0
 12 13  1  0  0  0  0
 13 14  2  0  0  0  0
 14 15  1  0  0  0  0
 15 16  2  0  0  0  0
 11 16  1  0  0  0  0
 16 17  1  0  0  0  0
  7 17  1  0  0  0  0
  2 18  1  0  0  0  0
 18 19  1  0  0  0  0
 19 20  1  0  0  0  0
 20 21  1  0  0  0  0
 20 22  1  0  0  0  0
  1 22  1  0  0  0  0
 22 23  1  0  0  0  0
 23 24  1  0  0  0  0
 24 25  1  0  0  0  0
 23 26  2  0  0  0  0
M  CHG  2  27   1  28  -1
M  END
>  <Name>
Yohimbine HCl

>  <CAS>
65-19-0

>  <Formula>
C21H27ClN2O3

>  <MolWt>
390.90 

>  <Bioactivity>
A plant alkaloid with alpha-2-adrenergic blocking activity. Yohimbine has been used as a mydriatic and in the treatment of ERECTILE DYSFUNCTION. 

>  <Pathways>
GPCR/G Protein

>  <Target>
Adrenergic Receptor antagonist 

>  <Receptor>
?-adrenergic receptor

>  <Reference>
1. Ernst E, et al. J Urol, 1998, 159(2), 433-436.

$$$$
T1225
  Mrv1561503291623562D          

 20 21  0  0  1  0            999 V2000
   -0.0000    3.3000    0.0000 C   0  0  1  0  0  0  0  0  0  0  0  0
   -0.0000    2.4750    0.0000 C   0  0  1  0  0  0  0  0  0  0  0  0
    0.7145    2.0625    0.0000 C   0  0  0  0  0  0  0  0  0  0  0  0
    0.7145    1.2375    0.0000 C   0  0  0  0  0  0  0  0  0  0  0  0
    1.4289    0.8250    0.0000 C   0  0  0  0  0  0  0  0  0  0  0  0
    1.4289    0.0000    0.0000 C   0  0  0  0  0  0  0  0  0  0  0  0
    0.7145   -0.4125    0.0000 N   0  0  0  0  0  0  0  0  0  0  0  0
    0.0000   -0.0000    0.0000 C   0  0  0  0  0  0  0  0  0  0  0  0
    0.0000    0.8250    0.0000 C   0  0  0  0  0  0  0  0  0  0  0  0
   -0.7145   -0.4125    0.0000 O   0  0  0  0  0  0  0  0  0  0  0  0
    2.1434   -0.4125    0.0000 O   0  0  0  0  0  0  0  0  0  0  0  0
   -0.7145    2.0625    0.0000 O   0  0  0  0  0  0  0  0  0  0  0  0
   -0.7145    3.7125    0.0000 C   0  0  0  0  0  0  0  0  0  0  0  0
   -0.7145    4.5375    0.0000 C   0  0  2  0  0  0  0  0  0  0  0  0
   -0.0000    4.9500    0.0000 C   0  0  0  0  0  0  0  0  0  0  0  0
    0.7145    4.5375    0.0000 C   0  0  1  0  0  0  0  0  0  0  0  0
    0.7145    3.7125    0.0000 C   0  0  0  0  0  0  0  0  0  0  0  0
    1.4289    4.9500    0.0000 C   0  0  0  0  0  0  0  0  0  0  0  0
   -1.4289    4.9500    0.0000 C   0  0  0  0  0  0  0  0  0  0  0  0
   -1.4289    3.3000    0.0000 O   0  0  0  0  0  0  0  0  0  0  0  0
  1  2  1  1  0  0  0
  2  3  1  0  0  0  0
  3  4  1  0  0  0  0
  4  5  1  0  0  0  0
  5  6  1  0  0  0  0
  6  7  1  0  0  0  0
  7  8  1  0  0  0  0
  8  9  1  0  0  0  0
  4  9  1  0  0  0  0
  8 10  2  0  0  0  0
  6 11  2  0  0  0  0
  2 12  1  1  0  0  0
  1 13  1  0  0  0  0
 13 14  1  0  0  0  0
 14 15  1  0  0  0  0
 15 16  1  0  0  0  0
 16 17  1  0  0  0  0
  1 17  1  0  0  0  0
 16 18  1  6  0  0  0
 14 19  1  1  0  0  0
 13 20  2  0  0  0  0
M  END
>  <Name>
Actidione

>  <CAS>
66-81-9

>  <Formula>
C15H23NO4

>  <MolWt>
281.35 

>  <Bioactivity>
Antibiotic substance isolated from streptomycin-producing strains of Streptomyces griseus. It acts by inhibiting elongation during protein synthesis.


>  <Pathways>
Microbiology & Virology

>  <Target>
Antifungal

>  <Receptor>
Others

>  <Reference>
1. Watanabe-Asano T, et al. Biochem Biophys Res Commun. 2014 Mar 7;445(2):334-9. 

$$$$
T2548
  Mrv1561503291623562D          

 29 32  0  0  1  0            999 V2000
    0.7475   -2.9779    0.0000 C   0  0  1  0  0  0  0  0  0  0  0  0
    1.5596   -2.8327    0.0000 C   0  0  1  0  0  0  0  0  0  0  0  0
    2.0914   -3.4634    0.0000 C   0  0  1  0  0  0  0  0  0  0  0  0
    2.6232   -4.0941    0.0000 F   0  0  0  0  0  0  0  0  0  0  0  0
    2.9035   -3.3182    0.0000 C   0  0  2  0  0  0  0  0  0  0  0  0
    3.1838   -2.5422    0.0000 C   0  0  0  0  0  0  0  0  0  0  0  0
    3.9960   -2.3970    0.0000 C   0  0  0  0  0  0  0  0  0  0  0  0
    4.5278   -3.0277    0.0000 C   0  0  0  0  0  0  0  0  0  0  0  0
    5.3399   -2.8825    0.0000 O   0  0  0  0  0  0  0  0  0  0  0  0
    4.2475   -3.8037    0.0000 C   0  0  0  0  0  0  0  0  0  0  0  0
    3.4354   -3.9489    0.0000 C   0  0  0  0  0  0  0  0  0  0  0  0
    2.6520   -1.9115    0.0000 C   0  0  1  0  0  0  0  0  0  0  0  0
    2.9323   -1.1356    0.0000 F   0  0  0  0  0  0  0  0  0  0  0  0
    1.8399   -2.0567    0.0000 C   0  0  0  0  0  0  0  0  0  0  0  0
    3.1329   -4.1106    0.0000 C   0  0  0  0  0  0  0  0  0  0  0  0
    1.8111   -4.2393    0.0000 C   0  0  1  0  0  0  0  0  0  0  0  0
    2.3429   -4.8700    0.0000 O   0  0  0  0  0  0  0  0  0  0  0  0
    0.9990   -4.3845    0.0000 C   0  0  0  0  0  0  0  0  0  0  0  0
    0.4672   -3.7538    0.0000 C   0  0  2  0  0  0  0  0  0  0  0  0
   -0.3574   -3.7270    0.0000 C   0  0  2  0  0  0  0  0  0  0  0  0
   -0.2978   -4.5498    0.0000 O   0  0  0  0  0  0  0  0  0  0  0  0
   -0.5867   -2.9345    0.0000 C   0  0  2  0  0  0  0  0  0  0  0  0
    0.0962   -2.4715    0.0000 C   0  0  0  0  0  0  0  0  0  0  0  0
   -1.3626   -2.6542    0.0000 C   0  0  0  0  0  0  0  0  0  0  0  0
   -1.1695   -3.8722    0.0000 C   0  0  0  0  0  0  0  0  0  0  0  0
   -1.7013   -3.2415    0.0000 O   0  0  0  0  0  0  0  0  0  0  0  0
   -1.4498   -4.6481    0.0000 C   0  0  0  0  0  0  0  0  0  0  0  0
   -0.9180   -5.2788    0.0000 O   0  0  0  0  0  0  0  0  0  0  0  0
    0.1073   -4.4962    0.0000 C   0  0  0  0  0  0  0  0  0  0  0  0
  1  2  1  0  0  0  0
  2  3  1  0  0  0  0
  3  4  1  6  0  0  0
  3  5  1  0  0  0  0
  5  6  1  0  0  0  0
  6  7  2  0  0  0  0
  7  8  1  0  0  0  0
  8  9  2  0  0  0  0
  8 10  1  0  0  0  0
 10 11  2  0  0  0  0
  5 11  1  0  0  0  0
  6 12  1  0  0  0  0
 12 13  1  6  0  0  0
 12 14  1  0  0  0  0
  2 14  1  6  0  0  0
  5 15  1  1  0  0  0
  3 16  1  0  0  0  0
 16 17  1  1  0  0  0
 16 18  1  0  0  0  0
 18 19  1  0  0  0  0
  1 19  1  0  0  0  0
 19 20  1  0  0  0  0
 20 21  1  6  0  0  0
 20 22  1  0  0  0  0
 22 23  1  0  0  0  0
  1 23  1  1  0  0  0
 22 24  1  1  0  0  0
 20 25  1  1  0  0  0
 25 26  2  0  0  0  0
 25 27  1  0  0  0  0
 27 28  1  0  0  0  0
 19 29  1  1  0  0  0
M  END
>  <Name>
Diflorasone

>  <CAS>
2557-49-5

>  <Formula>
C22H28F2O5

>  <MolWt>
410.45 

>  <Bioactivity>
Diflorasone is a Corticosteroid. The mechanism of action of diflorasone is as a Corticosteroid Hormone Receptor Agonist.

>  <Pathways>
Endocrinology/ Hormones

>  <Target>
Glucocorticoid Receptor agonist

>  <Receptor>
Glucocorticoid receptor

>  <Reference>
1. Pearce DJ, et al. J Dermatolog Treat. 2004 Jul;15(4):235-8. 

$$$$
496-67-3
  Mrv1561503291623562D          

 11 10  0  0  0  0            999 V2000
    1.7605    1.8414    0.0000 C   0  0  0  0  0  0  0  0  0  0  0  0
    2.4750    1.4289    0.0000 C   0  0  0  0  0  0  0  0  0  0  0  0
    3.1895    1.8414    0.0000 C   0  0  0  0  0  0  0  0  0  0  0  0
    3.9039    1.4289    0.0000 C   0  0  0  0  0  0  0  0  0  0  0  0
    4.6184    1.8414    0.0000 N   0  0  0  0  0  0  0  0  0  0  0  0
    5.3329    1.4289    0.0000 C   0  0  0  0  0  0  0  0  0  0  0  0
    6.0474    1.8414    0.0000 N   0  0  0  0  0  0  0  0  0  0  0  0
    5.3329    0.6039    0.0000 O   0  0  0  0  0  0  0  0  0  0  0  0
    3.9039    0.6039    0.0000 O   0  0  0  0  0  0  0  0  0  0  0  0
    3.1895    2.6664    0.0000 Br  0  0  0  0  0  0  0  0  0  0  0  0
    2.4750    0.6039    0.0000 C   0  0  0  0  0  0  0  0  0  0  0  0
  1  2  1  0  0  0  0
  2  3  1  0  0  0  0
  3  4  1  0  0  0  0
  4  5  1  0  0  0  0
  5  6  1  0  0  0  0
  6  7  1  0  0  0  0
  6  8  2  0  0  0  0
  4  9  2  0  0  0  0
  3 10  1  0  0  0  0
  2 11  1  0  0  0  0
M  END
>  <Name>
Bromisoval

>  <CAS>
496-67-3

>  <Formula>
C6H11BrN2O2

>  <MolWt>
223.07 

>  <Bioactivity>
Bromisoval is a sedative and mild hypnotic with potentially toxic effects.

>  <Pathways>
Neuroscience

>  <Target>
Others

>  <Receptor>
Others

>  <Reference>
1. Kumazawa T, et al. J Anal Toxicol. 1992 May-Jun;16(3):163-5.

$$$$
105462-24-6
  Mrv1561503291623562D          

 17 17  0  0  0  0            999 V2000
    1.4289    0.8250    0.0000 C   0  0  0  0  0  0  0  0  0  0  0  0
    1.4289    0.0000    0.0000 C   0  0  0  0  0  0  0  0  0  0  0  0
    0.7145   -0.4125    0.0000 C   0  0  0  0  0  0  0  0  0  0  0  0
   -0.0000    0.0000    0.0000 N   0  0  0  0  0  0  0  0  0  0  0  0
   -0.0000    0.8250    0.0000 C   0  0  0  0  0  0  0  0  0  0  0  0
    0.7145    1.2375    0.0000 C   0  0  0  0  0  0  0  0  0  0  0  0
    0.7145    2.0625    0.0000 C   0  0  0  0  0  0  0  0  0  0  0  0
    0.0000    2.4750    0.0000 C   0  0  0  0  0  0  0  0  0  0  0  0
    0.4125    3.1895    0.0000 P   0  0  0  0  0  0  0  0  0  0  0  0
    0.8250    3.9039    0.0000 O   0  0  0  0  0  0  0  0  0  0  0  0
    1.1270    2.7770    0.0000 O   0  0  0  0  0  0  0  0  0  0  0  0
   -0.3020    3.6020    0.0000 O   0  0  0  0  0  0  0  0  0  0  0  0
   -0.4125    1.7605    0.0000 P   0  0  0  0  0  0  0  0  0  0  0  0
   -1.1270    2.1730    0.0000 O   0  0  0  0  0  0  0  0  0  0  0  0
   -0.8250    1.0461    0.0000 O   0  0  0  0  0  0  0  0  0  0  0  0
    0.3020    1.3480    0.0000 O   0  0  0  0  0  0  0  0  0  0  0  0
   -0.7145    2.8875    0.0000 O   0  0  0  0  0  0  0  0  0  0  0  0
  1  2  2  0  0  0  0
  2  3  1  0  0  0  0
  3  4  2  0  0  0  0
  4  5  1  0  0  0  0
  5  6  2  0  0  0  0
  1  6  1  0  0  0  0
  6  7  1  0  0  0  0
  7  8  1  0  0  0  0
  8  9  1  0  0  0  0
  9 10  1  0  0  0  0
  9 11  1  0  0  0  0
  9 12  2  0  0  0  0
  8 13  1  0  0  0  0
 13 14  1  0  0  0  0
 13 15  2  0  0  0  0
 13 16  1  0  0  0  0
  8 17  1  0  0  0  0
M  END
>  <Name>
Risedronic Acid

>  <CAS>
105462-24-6

>  <Formula>
C7H11NO7P2

>  <MolWt>
283.11 

>  <Bioactivity>
Risedronic acid (Risedronate ) is a pyridinyl biphosphonate which inhibits osteoclast-mediated bone resorption.

>  <Pathways>
Metabolism

>  <Target>
Farnesyl pyrophosphate synthase inhibitor;Hydroxylapatite antagonist

>  <Receptor>
Farnesyl pyrophosphate synthase;Hydroxylapatite

>  <Reference>
1. Bergstrom JD, et al. Arch Biochem Biophys. 2000 Jan 1;373(1):231-41. 

$$$$
83-75-0
  Mrv1561503291623562D          

 29 32  0  0  1  0            999 V2000
    1.5251   -0.1666    0.0000 C   0  0  1  0  0  0  0  0  0  0  0  0
    2.2396   -0.5791    0.0000 C   0  0  1  0  0  0  0  0  0  0  0  0
    2.9540   -0.1666    0.0000 N   0  0  0  0  0  0  0  0  0  0  0  0
    3.6685   -0.5791    0.0000 C   0  0  0  0  0  0  0  0  0  0  0  0
    3.6685   -1.4041    0.0000 C   0  0  1  0  0  0  0  0  0  0  0  0
    2.9540   -1.8166    0.0000 C   0  0  1  0  0  0  0  0  0  0  0  0
    2.2396   -1.4041    0.0000 C   0  0  0  0  0  0  0  0  0  0  0  0
    3.0915   -1.2666    0.0000 C   0  0  0  0  0  0  0  0  0  0  0  0
    3.0915   -0.7166    0.0000 C   0  0  0  0  0  0  0  0  0  0  0  0
    4.3830   -1.8166    0.0000 C   0  0  0  0  0  0  0  0  0  0  0  0
    4.3830   -2.6416    0.0000 C   0  0  0  0  0  0  0  0  0  0  0  0
    1.5251    0.6584    0.0000 C   0  0  0  0  0  0  0  0  0  0  0  0
    2.2396    1.0709    0.0000 C   0  0  0  0  0  0  0  0  0  0  0  0
    2.2396    1.8959    0.0000 C   0  0  0  0  0  0  0  0  0  0  0  0
    1.5251    2.3084    0.0000 N   0  0  0  0  0  0  0  0  0  0  0  0
    0.8106    1.8959    0.0000 C   0  0  0  0  0  0  0  0  0  0  0  0
    0.8106    1.0709    0.0000 C   0  0  0  0  0  0  0  0  0  0  0  0
    2.9540    2.3084    0.0000 C   0  0  0  0  0  0  0  0  0  0  0  0
    3.6685    1.8959    0.0000 C   0  0  0  0  0  0  0  0  0  0  0  0
    3.6685    1.0709    0.0000 C   0  0  0  0  0  0  0  0  0  0  0  0
    2.9540    0.6584    0.0000 C   0  0  0  0  0  0  0  0  0  0  0  0
    4.3830    0.6584    0.0000 O   0  0  0  0  0  0  0  0  0  0  0  0
    5.0975    1.0709    0.0000 C   0  0  0  0  0  0  0  0  0  0  0  0
    0.8106   -0.5791    0.0000 O   0  0  0  0  0  0  0  0  0  0  0  0
    0.8106   -1.4041    0.0000 C   0  0  0  0  0  0  0  0  0  0  0  0
    0.0962   -1.8166    0.0000 O   0  0  0  0  0  0  0  0  0  0  0  0
    0.0962   -2.6416    0.0000 C   0  0  0  0  0  0  0  0  0  0  0  0
    0.8106   -3.0541    0.0000 C   0  0  0  0  0  0  0  0  0  0  0  0
    1.5251   -1.8166    0.0000 O   0  0  0  0  0  0  0  0  0  0  0  0
  2  1  1  1  0  0  0
  2  3  1  0  0  0  0
  3  4  1  0  0  0  0
  4  5  1  0  0  0  0
  5  6  1  0  0  0  0
  6  7  1  0  0  0  0
  2  7  1  0  0  0  0
  6  8  1  6  0  0  0
  8  9  1  0  0  0  0
  3  9  1  0  0  0  0
  5 10  1  6  0  0  0
 10 11  2  0  0  0  0
  1 12  1  0  0  0  0
 12 13  2  0  0  0  0
 13 14  1  0  0  0  0
 14 15  2  0  0  0  0
 15 16  1  0  0  0  0
 16 17  2  0  0  0  0
 12 17  1  0  0  0  0
 14 18  1  0  0  0  0
 18 19  2  0  0  0  0
 19 20  1  0  0  0  0
 20 21  2  0  0  0  0
 13 21  1  0  0  0  0
 20 22  1  0  0  0  0
 22 23  1  0  0  0  0
  1 24  1  6  0  0  0
 24 25  1  0  0  0  0
 25 26  1  0  0  0  0
 26 27  1  0  0  0  0
 27 28  1  0  0  0  0
 25 29  2  0  0  0  0
M  END
>  <Name>
Euquinine

>  <CAS>
83-75-0

>  <Formula>
C23H28N2O4

>  <MolWt>
396.48 

>  <Bioactivity>
N/A

>  <Pathways>
Others

>  <Target>
Others

>  <Receptor>
Others

>  <Reference>
N/A

$$$$
75695-93-1
  Mrv1561503291623562D          

 27 29  0  0  0  0            999 V2000
    2.0701    1.1104    0.0000 C   0  0  0  0  0  0  0  0  0  0  0  0
    1.3556    0.6979    0.0000 C   0  0  0  0  0  0  0  0  0  0  0  0
    1.3556   -0.1271    0.0000 C   0  0  0  0  0  0  0  0  0  0  0  0
    2.0701   -0.5396    0.0000 C   0  0  0  0  0  0  0  0  0  0  0  0
    2.0701   -1.3646    0.0000 C   0  0  0  0  0  0  0  0  0  0  0  0
    1.3556   -1.7771    0.0000 N   0  0  0  0  0  0  0  0  0  0  0  0
    0.6411   -1.3646    0.0000 C   0  0  0  0  0  0  0  0  0  0  0  0
    0.6411   -0.5396    0.0000 C   0  0  0  0  0  0  0  0  0  0  0  0
   -0.0734   -0.1271    0.0000 C   0  0  0  0  0  0  0  0  0  0  0  0
   -0.7878   -0.5396    0.0000 O   0  0  0  0  0  0  0  0  0  0  0  0
   -1.5023   -0.1271    0.0000 C   0  0  0  0  0  0  0  0  0  0  0  0
   -0.5583    0.5404    0.0000 O   0  0  0  0  0  0  0  0  0  0  0  0
   -0.0734   -1.7771    0.0000 C   0  0  0  0  0  0  0  0  0  0  0  0
    2.7845   -1.7771    0.0000 C   0  0  0  0  0  0  0  0  0  0  0  0
    2.7845   -0.1271    0.0000 C   0  0  0  0  0  0  0  0  0  0  0  0
    3.4990   -0.5396    0.0000 O   0  0  0  0  0  0  0  0  0  0  0  0
    4.2135   -0.1271    0.0000 C   0  0  0  0  0  0  0  0  0  0  0  0
    4.2135    0.6979    0.0000 C   0  0  0  0  0  0  0  0  0  0  0  0
    4.9279   -0.5396    0.0000 C   0  0  0  0  0  0  0  0  0  0  0  0
    2.7845    0.6979    0.0000 O   0  0  0  0  0  0  0  0  0  0  0  0
    0.6411    1.1104    0.0000 C   0  0  0  0  0  0  0  0  0  0  0  0
   -0.1435    0.8555    0.0000 N   0  0  0  0  0  0  0  0  0  0  0  0
   -0.6284    1.5229    0.0000 O   0  0  0  0  0  0  0  0  0  0  0  0
   -0.1435    2.1904    0.0000 N   0  0  0  0  0  0  0  0  0  0  0  0
    0.6411    1.9354    0.0000 C   0  0  0  0  0  0  0  0  0  0  0  0
    1.3556    2.3479    0.0000 C   0  0  0  0  0  0  0  0  0  0  0  0
    2.0701    1.9354    0.0000 C   0  0  0  0  0  0  0  0  0  0  0  0
  1  2  2  0  0  0  0
  2  3  1  0  0  0  0
  3  4  1  0  0  0  0
  4  5  2  0  0  0  0
  5  6  1  0  0  0  0
  6  7  1  0  0  0  0
  7  8  2  0  0  0  0
  3  8  1  0  0  0  0
  8  9  1  0  0  0  0
  9 10  1  0  0  0  0
 10 11  1  0  0  0  0
  9 12  2  0  0  0  0
  7 13  1  0  0  0  0
  5 14  1  0  0  0  0
  4 15  1  0  0  0  0
 15 16  1  0  0  0  0
 16 17  1  0  0  0  0
 17 18  1  0  0  0  0
 17 19  1  0  0  0  0
 15 20  2  0  0  0  0
  2 21  1  0  0  0  0
 21 22  2  0  0  0  0
 22 23  1  0  0  0  0
 23 24  1  0  0  0  0
 24 25  2  0  0  0  0
 21 25  1  0  0  0  0
 25 26  1  0  0  0  0
 26 27  2  0  0  0  0
  1 27  1  0  0  0  0
M  END
>  <Name>
Isradipine

>  <CAS>
75695-93-1

>  <Formula>
C19H21N3O5

>  <MolWt>
371.39 

>  <Bioactivity>
Isradipine is a potent and selective L-type voltage-gated calcium channel blocker, used to treat high blood pressure.

>  <Pathways>
Membrane Transporter/Ion Channel

>  <Target>
Calcium Channel inhibitor

>  <Receptor>
Calcium Channel

>  <Reference>
1. Ilijic E, et al. Neurobiol Dis. 2011 Aug;43(2):364-71. 

$$$$
11032-49-8
  Mrv1561503291623562D          

 23 24  0  0  0  0            999 V2000
   -0.0000    0.0000    0.0000 C   0  0  0  0  0  0  0  0  0  0  0  0
   -0.7145   -0.4125    0.0000 C   0  0  0  0  0  0  0  0  0  0  0  0
   -0.7145   -1.2375    0.0000 C   0  0  0  0  0  0  0  0  0  0  0  0
   -0.0000   -1.6500    0.0000 C   0  0  0  0  0  0  0  0  0  0  0  0
    0.7145   -1.2375    0.0000 C   0  0  0  0  0  0  0  0  0  0  0  0
    0.7145   -0.4125    0.0000 C   0  0  0  0  0  0  0  0  0  0  0  0
    1.4289    0.0000    0.0000 C   0  0  0  0  0  0  0  0  0  0  0  0
    1.4289    0.8250    0.0000 O   0  0  0  0  0  0  0  0  0  0  0  0
    2.1434   -0.4125    0.0000 C   0  0  0  0  0  0  0  0  0  0  0  0
    2.1434   -1.2375    0.0000 C   0  0  0  0  0  0  0  0  0  0  0  0
    1.4289   -1.6500    0.0000 C   0  0  0  0  0  0  0  0  0  0  0  0
    1.4289   -2.4750    0.0000 O   0  0  0  0  0  0  0  0  0  0  0  0
    2.8579   -1.6500    0.0000 C   0  0  0  0  0  0  0  0  0  0  0  0
    2.8579    0.0000    0.0000 C   0  0  0  0  0  0  0  0  0  0  0  0
    2.8579    0.8250    0.0000 C   0  0  0  0  0  0  0  0  0  0  0  0
    3.5724    1.2375    0.0000 C   0  0  0  0  0  0  0  0  0  0  0  0
    3.5724    2.0625    0.0000 C   0  0  0  0  0  0  0  0  0  0  0  0
    4.2868    2.4750    0.0000 C   0  0  0  0  0  0  0  0  0  0  0  0
    4.2868    3.3000    0.0000 C   0  0  0  0  0  0  0  0  0  0  0  0
    5.0013    3.7125    0.0000 C   0  0  0  0  0  0  0  0  0  0  0  0
    5.0013    4.5375    0.0000 C   0  0  0  0  0  0  0  0  0  0  0  0
    5.7158    3.3000    0.0000 C   0  0  0  0  0  0  0  0  0  0  0  0
    4.2868    0.8250    0.0000 C   0  0  0  0  0  0  0  0  0  0  0  0
  1  2  2  0  0  0  0
  2  3  1  0  0  0  0
  3  4  2  0  0  0  0
  4  5  1  0  0  0  0
  5  6  2  0  0  0  0
  1  6  1  0  0  0  0
  6  7  1  0  0  0  0
  7  8  2  0  0  0  0
  7  9  1  0  0  0  0
  9 10  2  0  0  0  0
 10 11  1  0  0  0  0
  5 11  1  0  0  0  0
 11 12  2  0  0  0  0
 10 13  1  0  0  0  0
  9 14  1  0  0  0  0
 14 15  1  0  0  0  0
 15 16  2  0  0  0  0
 16 17  1  0  0  0  0
 17 18  1  0  0  0  0
 18 19  1  0  0  0  0
 19 20  2  0  0  0  0
 20 21  1  0  0  0  0
 20 22  1  0  0  0  0
 16 23  1  0  0  0  0
M  END
>  <Name>
Menatetrenone

>  <CAS>
11032-49-8

>  <Formula>
C31H40O2

>  <MolWt>
444.65 

>  <Bioactivity>
Menatetrenone is a menaquinone compound and form of vitamin K2 with potential antineoplastic activity. Menatetrenone may act by modulating the signalling of certain tyrosine kinases, thereby affecting several transcription factors including c-myc and c-fos. This agent inhibits tumor cell growth by inducing apoptosis and cell cycle arrest.

>  <Pathways>
Vitamin

>  <Target>
VK

>  <Receptor>
vitamin k2 analog

>  <Reference>
1. Ishizuka M, et al. Anticancer Res. 2012 Dec;32(12):5415-20.

$$$$
41753-43-9
  Mrv1561503291623562D          

 77 84  0  0  1  0            999 V2000
    0.7475   -2.9779    0.0000 C   0  0  1  0  0  0  0  0  0  0  0  0
    1.5596   -2.8327    0.0000 C   0  0  1  0  0  0  0  0  0  0  0  0
    2.0914   -3.4634    0.0000 C   0  0  1  0  0  0  0  0  0  0  0  0
    2.9035   -3.3182    0.0000 C   0  0  2  0  0  0  0  0  0  0  0  0
    3.1838   -2.5422    0.0000 C   0  0  2  0  0  0  0  0  0  0  0  0
    3.9960   -2.3970    0.0000 C   0  0  0  0  0  0  0  0  0  0  0  0
    4.5278   -3.0277    0.0000 C   0  0  1  0  0  0  0  0  0  0  0  0
    5.3399   -2.8825    0.0000 O   0  0  0  0  0  0  0  0  0  0  0  0
    5.8717   -3.5132    0.0000 C   0  0  2  0  0  0  0  0  0  0  0  0
    6.6838   -3.3680    0.0000 O   0  0  0  0  0  0  0  0  0  0  0  0
    7.2157   -3.9987    0.0000 C   0  0  1  0  0  0  0  0  0  0  0  0
    6.9354   -4.7746    0.0000 C   0  0  1  0  0  0  0  0  0  0  0  0
    7.4672   -5.4053    0.0000 O   0  0  0  0  0  0  0  0  0  0  0  0
    6.1232   -4.9199    0.0000 C   0  0  2  0  0  0  0  0  0  0  0  0
    5.8429   -5.6958    0.0000 O   0  0  0  0  0  0  0  0  0  0  0  0
    5.5914   -4.2891    0.0000 C   0  0  1  0  0  0  0  0  0  0  0  0
    4.7793   -4.4344    0.0000 O   0  0  0  0  0  0  0  0  0  0  0  0
    4.4990   -5.2103    0.0000 C   0  0  2  0  0  0  0  0  0  0  0  0
    5.0308   -5.8410    0.0000 O   0  0  0  0  0  0  0  0  0  0  0  0
    4.7505   -6.6169    0.0000 C   0  0  1  0  0  0  0  0  0  0  0  0
    3.9384   -6.7621    0.0000 C   0  0  1  0  0  0  0  0  0  0  0  0
    3.6581   -7.5381    0.0000 O   0  0  0  0  0  0  0  0  0  0  0  0
    3.4066   -6.1314    0.0000 C   0  0  2  0  0  0  0  0  0  0  0  0
    2.5945   -6.2766    0.0000 O   0  0  0  0  0  0  0  0  0  0  0  0
    3.6869   -5.3555    0.0000 C   0  0  1  0  0  0  0  0  0  0  0  0
    3.1551   -4.7248    0.0000 O   0  0  0  0  0  0  0  0  0  0  0  0
    5.2823   -7.2476    0.0000 C   0  0  0  0  0  0  0  0  0  0  0  0
    5.0020   -8.0235    0.0000 O   0  0  0  0  0  0  0  0  0  0  0  0
    8.0278   -3.8535    0.0000 C   0  0  0  0  0  0  0  0  0  0  0  0
    8.5596   -4.4842    0.0000 O   0  0  0  0  0  0  0  0  0  0  0  0
    4.2475   -3.8037    0.0000 C   0  0  0  0  0  0  0  0  0  0  0  0
    3.4354   -3.9489    0.0000 C   0  0  0  0  0  0  0  0  0  0  0  0
    4.6077   -1.8435    0.0000 C   0  0  0  0  0  0  0  0  0  0  0  0
    3.8792   -1.5803    0.0000 C   0  0  0  0  0  0  0  0  0  0  0  0
    2.6520   -1.9115    0.0000 C   0  0  0  0  0  0  0  0  0  0  0  0
    1.8399   -2.0567    0.0000 C   0  0  0  0  0  0  0  0  0  0  0  0
    2.6232   -4.0941    0.0000 C   0  0  0  0  0  0  0  0  0  0  0  0
    1.8111   -4.2393    0.0000 C   0  0  0  0  0  0  0  0  0  0  0  0
    0.9990   -4.3845    0.0000 C   0  0  1  0  0  0  0  0  0  0  0  0
    0.7187   -5.1604    0.0000 O   0  0  0  0  0  0  0  0  0  0  0  0
    0.4672   -3.7538    0.0000 C   0  0  2  0  0  0  0  0  0  0  0  0
   -0.3574   -3.7270    0.0000 C   0  0  1  0  0  0  0  0  0  0  0  0
   -0.8637   -4.3783    0.0000 C   0  0  0  0  0  0  0  0  0  0  0  0
   -1.3701   -5.0297    0.0000 O   0  0  0  0  0  0  0  0  0  0  0  0
   -1.0592   -5.7938    0.0000 C   0  0  2  0  0  0  0  0  0  0  0  0
   -1.5655   -6.4452    0.0000 O   0  0  0  0  0  0  0  0  0  0  0  0
   -1.2547   -7.2093    0.0000 C   0  0  1  0  0  0  0  0  0  0  0  0
   -0.4374   -7.3222    0.0000 C   0  0  1  0  0  0  0  0  0  0  0  0
   -0.1265   -8.0864    0.0000 O   0  0  0  0  0  0  0  0  0  0  0  0
    0.0689   -6.6709    0.0000 C   0  0  2  0  0  0  0  0  0  0  0  0
    0.8862   -6.7837    0.0000 O   0  0  0  0  0  0  0  0  0  0  0  0
   -0.2419   -5.9067    0.0000 C   0  0  1  0  0  0  0  0  0  0  0  0
    0.2644   -5.2554    0.0000 O   0  0  0  0  0  0  0  0  0  0  0  0
   -1.7610   -7.8607    0.0000 C   0  0  0  0  0  0  0  0  0  0  0  0
   -2.5783   -7.7478    0.0000 O   0  0  0  0  0  0  0  0  0  0  0  0
   -3.0846   -8.3992    0.0000 C   0  0  0  0  0  0  0  0  0  0  0  0
   -2.7737   -9.1633    0.0000 O   0  0  0  0  0  0  0  0  0  0  0  0
   -3.2801   -9.8147    0.0000 C   0  0  1  0  0  0  0  0  0  0  0  0
   -4.0973   -9.7018    0.0000 C   0  0  1  0  0  0  0  0  0  0  0  0
   -4.6037  -10.3531    0.0000 O   0  0  0  0  0  0  0  0  0  0  0  0
   -4.4082   -8.9376    0.0000 C   0  0  2  0  0  0  0  0  0  0  0  0
   -5.2255   -8.8248    0.0000 O   0  0  0  0  0  0  0  0  0  0  0  0
   -3.9019   -8.2863    0.0000 C   0  0  1  0  0  0  0  0  0  0  0  0
   -4.2127   -7.5221    0.0000 O   0  0  0  0  0  0  0  0  0  0  0  0
   -2.9692  -10.5788    0.0000 C   0  0  0  0  0  0  0  0  0  0  0  0
   -3.4755  -11.2302    0.0000 O   0  0  0  0  0  0  0  0  0  0  0  0
   -1.5151   -3.8720    0.0000 C   0  0  0  0  0  0  0  0  0  0  0  0
   -2.2792   -4.1829    0.0000 C   0  0  0  0  0  0  0  0  0  0  0  0
   -2.9306   -3.6765    0.0000 C   0  0  0  0  0  0  0  0  0  0  0  0
   -3.6947   -3.9874    0.0000 C   0  0  0  0  0  0  0  0  0  0  0  0
   -4.3461   -3.4810    0.0000 C   0  0  0  0  0  0  0  0  0  0  0  0
   -3.8076   -4.8046    0.0000 C   0  0  0  0  0  0  0  0  0  0  0  0
   -0.2124   -4.8847    0.0000 C   0  0  0  0  0  0  0  0  0  0  0  0
   -0.5867   -2.9345    0.0000 C   0  0  0  0  0  0  0  0  0  0  0  0
    0.0962   -2.4715    0.0000 C   0  0  0  0  0  0  0  0  0  0  0  0
    1.0278   -2.2020    0.0000 C   0  0  0  0  0  0  0  0  0  0  0  0
    0.6880   -2.1550    0.0000 C   0  0  0  0  0  0  0  0  0  0  0  0
  1  2  1  0  0  0  0
  2  3  1  0  0  0  0
  3  4  1  0  0  0  0
  4  5  1  0  0  0  0
  5  6  1  0  0  0  0
  6  7  1  0  0  0  0
  7  8  1  1  0  0  0
  9  8  1  6  0  0  0
  9 10  1  0  0  0  0
 10 11  1  0  0  0  0
 11 12  1  0  0  0  0
 12 13  1  1  0  0  0
 12 14  1  0  0  0  0
 14 15  1  6  0  0  0
 14 16  1  0  0  0  0
  9 16  1  0  0  0  0
 16 17  1  1  0  0  0
 18 17  1  6  0  0  0
 18 19  1  0  0  0  0
 19 20  1  0  0  0  0
 20 21  1  0  0  0  0
 21 22  1  1  0  0  0
 21 23  1  0  0  0  0
 23 24  1  6  0  0  0
 23 25  1  0  0  0  0
 18 25  1  0  0  0  0
 25 26  1  1  0  0  0
 20 27  1  6  0  0  0
 27 28  1  0  0  0  0
 11 29  1  6  0  0  0
 29 30  1  0  0  0  0
  7 31  1  0  0  0  0
 31 32  1  0  0  0  0
  4 32  1  0  0  0  0
  6 33  1  0  0  0  0
  6 34  1  0  0  0  0
  5 35  1  1  0  0  0
 35 36  1  0  0  0  0
  2 36  1  0  0  0  0
  4 37  1  1  0  0  0
  3 38  1  1  0  0  0
 38 39  1  0  0  0  0
 39 40  1  1  0  0  0
 39 41  1  0  0  0  0
  1 41  1  0  0  0  0
 41 42  1  6  0  0  0
 42 43  1  1  0  0  0
 43 44  1  0  0  0  0
 45 44  1  1  0  0  0
 45 46  1  0  0  0  0
 46 47  1  0  0  0  0
 47 48  1  0  0  0  0
 48 49  1  6  0  0  0
 48 50  1  0  0  0  0
 50 51  1  1  0  0  0
 50 52  1  0  0  0  0
 45 52  1  0  0  0  0
 52 53  1  6  0  0  0
 47 54  1  1  0  0  0
 54 55  1  0  0  0  0
 55 56  1  0  0  0  0
 56 57  1  0  0  0  0
 57 58  1  0  0  0  0
 58 59  1  0  0  0  0
 59 60  1  1  0  0  0
 59 61  1  0  0  0  0
 61 62  1  6  0  0  0
 61 63  1  0  0  0  0
 56 63  1  0  0  0  0
 63 64  1  1  0  0  0
 58 65  1  6  0  0  0
 65 66  1  0  0  0  0
 43 67  1  0  0  0  0
 67 68  1  0  0  0  0
 68 69  1  0  0  0  0
 69 70  2  0  0  0  0
 70 71  1  0  0  0  0
 70 72  1  0  0  0  0
 43 73  1  0  0  0  0
 42 74  1  0  0  0  0
 74 75  1  0  0  0  0
  1 75  1  0  0  0  0
  2 76  1  1  0  0  0
  1 77  1  6  0  0  0
M  END
>  <Name>
Ginsenoside Rb1

>  <CAS>
41753-43-9

>  <Formula>
C54H92O23

>  <MolWt>
1109.29 

>  <Bioactivity>
Ginsenosides are a class of steroid glycosides, and triterpene saponins, found exclusively in the plant genus Panax (ginseng). Ginsenosides have been the target of research, as they are viewed as the active compounds behind the claims of ginseng's efficacy. Because ginsenosides appear to affect multiple pathways, their effects are complex and difficult to isolate. Rb1 appears to be most abundant in Panax quinquefolius (American Ginseng). Rb1 seems to affect the reproductive system in animal testicles. Recent research shows that Rb1 affects rat embryo development and has teratogenic effects, causing birth defects. Another study shows that Rb1 may increase testosterone production in male rats indirectly through the stimulation of the luteinizing hormone. Traditional Chinese medicine asserts that Panax quinquefolius promotes yin in the body. It also inhibits chemoinvasion and angiogenesis.

>  <Pathways>
Others

>  <Target>
Others

>  <Receptor>
Others

>  <Reference>
1. Zhang XJ, et al. Vascul Pharmacol. 2015 Oct;73:86-95. 

$$$$
83-48-7
  Mrv1561503291623562D          

 30 33  0  0  1  0            999 V2000
    2.8705    0.0722    0.0000 C   0  0  1  0  0  0  0  0  0  0  0  0
    3.6826    0.2174    0.0000 C   0  0  1  0  0  0  0  0  0  0  0  0
    3.9629    0.9934    0.0000 C   0  0  1  0  0  0  0  0  0  0  0  0
    4.7875    0.9666    0.0000 C   0  0  1  0  0  0  0  0  0  0  0  0
    5.2939    1.6179    0.0000 C   0  0  1  0  0  0  0  0  0  0  0  0
    6.1111    1.5050    0.0000 C   0  0  0  0  0  0  0  0  0  0  0  0
    6.4220    0.7409    0.0000 C   0  0  0  0  0  0  0  0  0  0  0  0
    7.2392    0.6280    0.0000 C   0  0  2  0  0  0  0  0  0  0  0  0
    7.5501   -0.1362    0.0000 C   0  0  0  0  0  0  0  0  0  0  0  0
    8.3674   -0.2490    0.0000 C   0  0  0  0  0  0  0  0  0  0  0  0
    7.0438   -0.7875    0.0000 C   0  0  0  0  0  0  0  0  0  0  0  0
    7.7456    1.2793    0.0000 C   0  0  0  0  0  0  0  0  0  0  0  0
    8.5628    1.1665    0.0000 C   0  0  0  0  0  0  0  0  0  0  0  0
    4.9830    2.3821    0.0000 C   0  0  0  0  0  0  0  0  0  0  0  0
    5.0168    0.1741    0.0000 C   0  0  0  0  0  0  0  0  0  0  0  0
    4.3340   -0.2889    0.0000 C   0  0  0  0  0  0  0  0  0  0  0  0
    3.4311    1.6241    0.0000 C   0  0  0  0  0  0  0  0  0  0  0  0
    2.6190    1.4789    0.0000 C   0  0  0  0  0  0  0  0  0  0  0  0
    2.3387    0.7029    0.0000 C   0  0  2  0  0  0  0  0  0  0  0  0
    1.5266    0.5577    0.0000 C   0  0  2  0  0  0  0  0  0  0  0  0
    1.2463   -0.2182    0.0000 C   0  0  0  0  0  0  0  0  0  0  0  0
    1.7781   -0.8489    0.0000 C   0  0  0  0  0  0  0  0  0  0  0  0
    2.5902   -0.7037    0.0000 C   0  0  0  0  0  0  0  0  0  0  0  0
    0.4342   -0.3634    0.0000 C   0  0  0  0  0  0  0  0  0  0  0  0
   -0.0976    0.2673    0.0000 C   0  0  1  0  0  0  0  0  0  0  0  0
   -0.9098    0.1221    0.0000 O   0  0  0  0  0  0  0  0  0  0  0  0
    0.1827    1.0432    0.0000 C   0  0  0  0  0  0  0  0  0  0  0  0
    0.9948    1.1884    0.0000 C   0  0  0  0  0  0  0  0  0  0  0  0
    1.8069    1.3336    0.0000 C   0  0  0  0  0  0  0  0  0  0  0  0
    4.3228    1.7357    0.0000 C   0  0  0  0  0  0  0  0  0  0  0  0
  1  2  1  0  0  0  0
  2  3  1  0  0  0  0
  3  4  1  0  0  0  0
  4  5  1  1  0  0  0
  5  6  1  0  0  0  0
  6  7  2  0  0  0  0
  7  8  1  0  0  0  0
  8  9  1  0  0  0  0
  9 10  1  0  0  0  0
  9 11  1  0  0  0  0
  8 12  1  1  0  0  0
 12 13  1  0  0  0  0
  5 14  1  6  0  0  0
  4 15  1  0  0  0  0
 15 16  1  0  0  0  0
  2 16  1  1  0  0  0
  3 17  1  0  0  0  0
 17 18  1  0  0  0  0
 19 18  1  1  0  0  0
  1 19  1  0  0  0  0
 19 20  1  0  0  0  0
 20 21  1  0  0  0  0
 21 22  2  0  0  0  0
 22 23  1  0  0  0  0
  1 23  1  6  0  0  0
 21 24  1  0  0  0  0
 24 25  1  0  0  0  0
 25 26  1  1  0  0  0
 25 27  1  0  0  0  0
 27 28  1  0  0  0  0
 20 28  1  0  0  0  0
 20 29  1  1  0  0  0
  3 30  1  1  0  0  0
M  END
>  <Name>
Stigmasterol

>  <CAS>
83-48-7

>  <Formula>
C29H48O

>  <MolWt>
412.69 

>  <Bioactivity>
Extracted from Glycine max(L.)Merr.;Suitability:Chloroform,benzene,ethyl acetate,pyridine,ethanol,acetone;Store the product in sealed,cool and dry condition

>  <Pathways>
Others

>  <Target>
Others

>  <Receptor>
Others

>  <Reference>
1. Kim YS, et al. BMB Rep. 2014 Aug;47(8):433-8.

$$$$
552-66-9
  Mrv1561503291623562D          

 30 33  0  0  1  0            999 V2000
   -1.4289    0.8250    0.0000 C   0  0  2  0  0  0  0  0  0  0  0  0
   -1.4289   -0.0000    0.0000 O   0  0  0  0  0  0  0  0  0  0  0  0
   -0.7145   -0.4125    0.0000 C   0  0  0  0  0  0  0  0  0  0  0  0
   -0.7145   -1.2375    0.0000 C   0  0  0  0  0  0  0  0  0  0  0  0
   -0.0000   -1.6500    0.0000 C   0  0  0  0  0  0  0  0  0  0  0  0
    0.7145   -1.2375    0.0000 C   0  0  0  0  0  0  0  0  0  0  0  0
    0.7145   -0.4125    0.0000 C   0  0  0  0  0  0  0  0  0  0  0  0
   -0.0000   -0.0000    0.0000 C   0  0  0  0  0  0  0  0  0  0  0  0
    1.4289    0.0000    0.0000 O   0  0  0  0  0  0  0  0  0  0  0  0
    2.1434   -0.4125    0.0000 C   0  0  0  0  0  0  0  0  0  0  0  0
    2.1434   -1.2375    0.0000 C   0  0  0  0  0  0  0  0  0  0  0  0
    1.4289   -1.6500    0.0000 C   0  0  0  0  0  0  0  0  0  0  0  0
    1.4289   -2.4750    0.0000 O   0  0  0  0  0  0  0  0  0  0  0  0
    2.8579   -1.6500    0.0000 C   0  0  0  0  0  0  0  0  0  0  0  0
    3.5724   -1.2375    0.0000 C   0  0  0  0  0  0  0  0  0  0  0  0
    4.2868   -1.6500    0.0000 C   0  0  0  0  0  0  0  0  0  0  0  0
    4.2868   -2.4750    0.0000 C   0  0  0  0  0  0  0  0  0  0  0  0
    5.0013   -2.8875    0.0000 O   0  0  0  0  0  0  0  0  0  0  0  0
    3.5724   -2.8875    0.0000 C   0  0  0  0  0  0  0  0  0  0  0  0
    2.8579   -2.4750    0.0000 C   0  0  0  0  0  0  0  0  0  0  0  0
   -2.1434    1.2375    0.0000 O   0  0  0  0  0  0  0  0  0  0  0  0
   -2.1434    2.0625    0.0000 C   0  0  1  0  0  0  0  0  0  0  0  0
   -1.4289    2.4750    0.0000 C   0  0  1  0  0  0  0  0  0  0  0  0
   -1.4289    3.3000    0.0000 O   0  0  0  0  0  0  0  0  0  0  0  0
   -0.7145    2.0625    0.0000 C   0  0  2  0  0  0  0  0  0  0  0  0
   -0.0000    2.4750    0.0000 O   0  0  0  0  0  0  0  0  0  0  0  0
   -0.7145    1.2375    0.0000 C   0  0  1  0  0  0  0  0  0  0  0  0
   -0.0000    0.8250    0.0000 O   0  0  0  0  0  0  0  0  0  0  0  0
   -2.8579    2.4750    0.0000 C   0  0  0  0  0  0  0  0  0  0  0  0
   -2.8579    3.3000    0.0000 O   0  0  0  0  0  0  0  0  0  0  0  0
  1  2  1  6  0  0  0
  2  3  1  0  0  0  0
  3  4  2  0  0  0  0
  4  5  1  0  0  0  0
  5  6  2  0  0  0  0
  6  7  1  0  0  0  0
  7  8  2  0  0  0  0
  3  8  1  0  0  0  0
  7  9  1  0  0  0  0
  9 10  1  0  0  0  0
 10 11  2  0  0  0  0
 11 12  1  0  0  0  0
  6 12  1  0  0  0  0
 12 13  2  0  0  0  0
 11 14  1  0  0  0  0
 14 15  2  0  0  0  0
 15 16  1  0  0  0  0
 16 17  2  0  0  0  0
 17 18  1  0  0  0  0
 17 19  1  0  0  0  0
 19 20  2  0  0  0  0
 14 20  1  0  0  0  0
  1 21  1  0  0  0  0
 21 22  1  0  0  0  0
 22 23  1  0  0  0  0
 23 24  1  1  0  0  0
 23 25  1  0  0  0  0
 25 26  1  6  0  0  0
 25 27  1  0  0  0  0
  1 27  1  0  0  0  0
 27 28  1  1  0  0  0
 22 29  1  6  0  0  0
 29 30  1  0  0  0  0
M  END
>  <Name>
Daidzin

>  <CAS>
552-66-9

>  <Formula>
C21H20O9

>  <MolWt>
416.37 

>  <Bioactivity>
Actions Daidzin is an isoflavone reported to have anti-oxidant,anti-carcinogenic,and anti-artherosclerotic activities. Daidzin is the major active component of the traditional Chinese medicine (TCM) derived from radix puerariae (Kudzu) that is commonly

>  <Pathways>
Others

>  <Target>
Others

>  <Receptor>
Others

>  <Reference>
1. Zaheer M, Reddy VD, Giri CC. Nat Prod Res. 2015 Jul 8:1-6. 

$$$$
114-49-8
  Mrv1561503291623562D          

 23 25  0  0  1  0            999 V2000
   -1.3689   -0.0000    0.0000 C   0  0  1  0  0  0  0  0  0  0  0  0
   -0.5439    0.0000    0.0000 C   0  0  0  0  0  0  0  0  0  0  0  0
   -0.1314    0.7145    0.0000 O   0  0  0  0  0  0  0  0  0  0  0  0
   -0.1314   -0.7145    0.0000 O   0  0  0  0  0  0  0  0  0  0  0  0
    0.6936   -0.7145    0.0000 C   0  0  0  0  0  0  0  0  0  0  0  0
    1.0516   -1.4578    0.0000 C   0  0  0  0  0  0  0  0  0  0  0  0
    1.8559   -1.6414    0.0000 C   0  0  1  0  0  0  0  0  0  0  0  0
    2.5009   -1.1270    0.0000 C   0  0  2  0  0  0  0  0  0  0  0  0
    2.5009   -0.3020    0.0000 C   0  0  2  0  0  0  0  0  0  0  0  0
    1.8559    0.2124    0.0000 C   0  0  2  0  0  0  0  0  0  0  0  0
    1.0516    0.0288    0.0000 C   0  0  0  0  0  0  0  0  0  0  0  0
    2.0876   -0.7145    0.0000 N   0  0  0  0  0  0  0  0  0  0  0  0
    2.9126   -0.7145    0.0000 C   0  0  0  0  0  0  0  0  0  0  0  0
    3.2154   -0.7145    0.0000 O   0  0  0  0  0  0  0  0  0  0  0  0
   -1.7814    0.7145    0.0000 C   0  0  0  0  0  0  0  0  0  0  0  0
   -2.6064    0.7145    0.0000 C   0  0  0  0  0  0  0  0  0  0  0  0
   -3.0189    1.4289    0.0000 C   0  0  0  0  0  0  0  0  0  0  0  0
   -2.6064    2.1434    0.0000 C   0  0  0  0  0  0  0  0  0  0  0  0
   -1.7814    2.1434    0.0000 C   0  0  0  0  0  0  0  0  0  0  0  0
   -1.3689    1.4289    0.0000 C   0  0  0  0  0  0  0  0  0  0  0  0
   -1.7814   -0.7145    0.0000 C   0  0  0  0  0  0  0  0  0  0  0  0
   -2.6064   -0.7145    0.0000 O   0  0  0  0  0  0  0  0  0  0  0  0
    5.1011    0.0000    0.0000 Br  0  0  0  0  0  0  0  0  0  0  0  0
  1  2  1  0  0  0  0
  2  3  2  0  0  0  0
  2  4  1  0  0  0  0
  4  5  1  0  0  0  0
  5  6  1  0  0  0  0
  6  7  1  0  0  0  0
  7  8  1  0  0  0  0
  8  9  1  0  0  0  0
  9 10  1  0  0  0  0
 10 11  1  0  0  0  0
  5 11  1  0  0  0  0
 10 12  1  6  0  0  0
  7 12  1  1  0  0  0
 12 13  1  0  0  0  0
  9 14  1  6  0  0  0
  8 14  1  6  0  0  0
  1 15  1  0  0  0  0
 15 16  2  0  0  0  0
 16 17  1  0  0  0  0
 17 18  2  0  0  0  0
 18 19  1  0  0  0  0
 19 20  2  0  0  0  0
 15 20  1  0  0  0  0
  1 21  1  6  0  0  0
 21 22  1  0  0  0  0
M  RAD  1  23   2
M  END
>  <Name>
Scopolamine HBr

>  <CAS>
114-49-8

>  <Formula>
C17H22BrNO4

>  <MolWt>
384.26 

>  <Bioactivity>
Extracted from Physochlaina infundibularis Kuang dried roots;Store the product in sealed, cool and dry condition

>  <Pathways>
Neuroscience

>  <Target>
AChR antagonist

>  <Receptor>
Muscarinic AChR

>  <Reference>
1. Murasaki O, et al. J Pharmacol Exp Ther. 2003 Dec;307(3):995-1000. 

$$$$
13241-33-3
  Mrv1561503291623562D          

 43 47  0  0  1  0            999 V2000
   -2.8579   -0.0000    0.0000 C   0  0  1  0  0  0  0  0  0  0  0  0
   -2.8579    0.8250    0.0000 O   0  0  0  0  0  0  0  0  0  0  0  0
   -3.5724    1.2375    0.0000 C   0  0  2  0  0  0  0  0  0  0  0  0
   -4.2868    0.8250    0.0000 O   0  0  0  0  0  0  0  0  0  0  0  0
   -5.0013    1.2375    0.0000 C   0  0  2  0  0  0  0  0  0  0  0  0
   -5.0013    2.0625    0.0000 C   0  0  2  0  0  0  0  0  0  0  0  0
   -5.7158    2.4750    0.0000 O   0  0  0  0  0  0  0  0  0  0  0  0
   -4.2868    2.4750    0.0000 C   0  0  1  0  0  0  0  0  0  0  0  0
   -4.2868    3.3000    0.0000 O   0  0  0  0  0  0  0  0  0  0  0  0
   -3.5724    2.0625    0.0000 C   0  0  1  0  0  0  0  0  0  0  0  0
   -2.8579    2.4750    0.0000 O   0  0  0  0  0  0  0  0  0  0  0  0
   -5.7158    0.8250    0.0000 C   0  0  0  0  0  0  0  0  0  0  0  0
   -2.1434   -0.4125    0.0000 C   0  0  2  0  0  0  0  0  0  0  0  0
   -1.4289   -0.0000    0.0000 O   0  0  0  0  0  0  0  0  0  0  0  0
   -0.7145   -0.4125    0.0000 C   0  0  0  0  0  0  0  0  0  0  0  0
   -0.7145   -1.2375    0.0000 C   0  0  0  0  0  0  0  0  0  0  0  0
   -0.0000   -1.6500    0.0000 C   0  0  0  0  0  0  0  0  0  0  0  0
    0.7145   -1.2375    0.0000 C   0  0  0  0  0  0  0  0  0  0  0  0
    0.7145   -0.4125    0.0000 C   0  0  0  0  0  0  0  0  0  0  0  0
   -0.0000   -0.0000    0.0000 C   0  0  0  0  0  0  0  0  0  0  0  0
    1.4289    0.0000    0.0000 O   0  0  0  0  0  0  0  0  0  0  0  0
    2.1434   -0.4125    0.0000 C   0  0  1  0  0  0  0  0  0  0  0  0
    2.1434   -1.2375    0.0000 C   0  0  0  0  0  0  0  0  0  0  0  0
    1.4289   -1.6500    0.0000 C   0  0  0  0  0  0  0  0  0  0  0  0
    1.4289   -2.4750    0.0000 O   0  0  0  0  0  0  0  0  0  0  0  0
    2.8579    0.0000    0.0000 C   0  0  0  0  0  0  0  0  0  0  0  0
    2.8579    0.8250    0.0000 C   0  0  0  0  0  0  0  0  0  0  0  0
    3.5724    1.2375    0.0000 C   0  0  0  0  0  0  0  0  0  0  0  0
    4.2868    0.8250    0.0000 C   0  0  0  0  0  0  0  0  0  0  0  0
    5.0013    1.2375    0.0000 O   0  0  0  0  0  0  0  0  0  0  0  0
    5.0013    2.0625    0.0000 C   0  0  0  0  0  0  0  0  0  0  0  0
    4.2868   -0.0000    0.0000 C   0  0  0  0  0  0  0  0  0  0  0  0
    3.5724   -0.4125    0.0000 C   0  0  0  0  0  0  0  0  0  0  0  0
    3.5724    2.0625    0.0000 O   0  0  0  0  0  0  0  0  0  0  0  0
    0.0000   -2.4750    0.0000 O   0  0  0  0  0  0  0  0  0  0  0  0
   -2.1434   -1.2375    0.0000 O   0  0  0  0  0  0  0  0  0  0  0  0
   -2.8579   -1.6500    0.0000 C   0  0  1  0  0  0  0  0  0  0  0  0
   -3.5724   -1.2375    0.0000 C   0  0  1  0  0  0  0  0  0  0  0  0
   -4.2868   -1.6500    0.0000 O   0  0  0  0  0  0  0  0  0  0  0  0
   -3.5724   -0.4125    0.0000 C   0  0  2  0  0  0  0  0  0  0  0  0
   -4.2868   -0.0000    0.0000 O   0  0  0  0  0  0  0  0  0  0  0  0
   -2.8579   -2.4750    0.0000 C   0  0  0  0  0  0  0  0  0  0  0  0
   -3.5724   -2.8875    0.0000 O   0  0  0  0  0  0  0  0  0  0  0  0
  1  2  1  1  0  0  0
  3  2  1  6  0  0  0
  3  4  1  0  0  0  0
  4  5  1  0  0  0  0
  5  6  1  0  0  0  0
  6  7  1  6  0  0  0
  6  8  1  0  0  0  0
  8  9  1  1  0  0  0
  8 10  1  0  0  0  0
  3 10  1  0  0  0  0
 10 11  1  1  0  0  0
  5 12  1  1  0  0  0
  1 13  1  0  0  0  0
 13 14  1  6  0  0  0
 14 15  1  0  0  0  0
 15 16  2  0  0  0  0
 16 17  1  0  0  0  0
 17 18  2  0  0  0  0
 18 19  1  0  0  0  0
 19 20  2  0  0  0  0
 15 20  1  0  0  0  0
 19 21  1  0  0  0  0
 21 22  1  0  0  0  0
 22 23  1  0  0  0  0
 23 24  1  0  0  0  0
 18 24  1  0  0  0  0
 24 25  2  0  0  0  0
 22 26  1  6  0  0  0
 26 27  2  0  0  0  0
 27 28  1  0  0  0  0
 28 29  2  0  0  0  0
 29 30  1  0  0  0  0
 30 31  1  0  0  0  0
 29 32  1  0  0  0  0
 32 33  2  0  0  0  0
 26 33  1  0  0  0  0
 28 34  1  0  0  0  0
 17 35  1  0  0  0  0
 13 36  1  0  0  0  0
 36 37  1  0  0  0  0
 37 38  1  0  0  0  0
 38 39  1  1  0  0  0
 38 40  1  0  0  0  0
  1 40  1  0  0  0  0
 40 41  1  6  0  0  0
 37 42  1  6  0  0  0
 42 43  1  0  0  0  0
M  END
>  <Name>
Neohesperidin

>  <CAS>
13241-33-3

>  <Formula>
C28H34O15

>  <MolWt>
610.56 

>  <Bioactivity>
Flavanone glycoside with antioxidant and neuroprotective properties. Unlike other citrus flavanones,it does not inhibit oral carcinogenesis in a rat model.

>  <Pathways>
Others

>  <Target>
Others

>  <Receptor>
Others

>  <Reference>
1. Lee JH, et al. Phytother Res, 2009, 23(12), 1748-1753.

$$$$
T2778
  Mrv1561503291623562D          

 22 23  0  0  0  0            999 V2000
    0.4763   -1.2179    0.0000 C   0  0  0  0  0  0  0  0  0  0  0  0
   -0.2382   -0.8054    0.0000 C   0  0  0  0  0  0  0  0  0  0  0  0
   -0.2382    0.0196    0.0000 C   0  0  0  0  0  0  0  0  0  0  0  0
    0.4763    0.4321    0.0000 O   0  0  0  0  0  0  0  0  0  0  0  0
    1.1908    0.0196    0.0000 C   0  0  0  0  0  0  0  0  0  0  0  0
    1.9053    0.4321    0.0000 C   0  0  0  0  0  0  0  0  0  0  0  0
    2.6197    0.0196    0.0000 C   0  0  0  0  0  0  0  0  0  0  0  0
    2.6197   -0.8054    0.0000 C   0  0  0  0  0  0  0  0  0  0  0  0
    1.9053   -1.2179    0.0000 C   0  0  0  0  0  0  0  0  0  0  0  0
    1.1908   -0.8054    0.0000 C   0  0  0  0  0  0  0  0  0  0  0  0
    1.9053   -2.0429    0.0000 O   0  0  0  0  0  0  0  0  0  0  0  0
    3.3342    0.4321    0.0000 O   0  0  0  0  0  0  0  0  0  0  0  0
   -0.9526    0.4321    0.0000 C   0  0  0  0  0  0  0  0  0  0  0  0
   -1.6671    0.0196    0.0000 C   0  0  0  0  0  0  0  0  0  0  0  0
   -2.3816    0.4321    0.0000 C   0  0  0  0  0  0  0  0  0  0  0  0
   -2.3816    1.2571    0.0000 C   0  0  0  0  0  0  0  0  0  0  0  0
   -1.6671    1.6696    0.0000 C   0  0  0  0  0  0  0  0  0  0  0  0
   -0.9526    1.2571    0.0000 C   0  0  0  0  0  0  0  0  0  0  0  0
   -3.0960    1.6696    0.0000 O   0  0  0  0  0  0  0  0  0  0  0  0
   -3.0960    0.0196    0.0000 O   0  0  0  0  0  0  0  0  0  0  0  0
   -0.9526   -1.2179    0.0000 O   0  0  0  0  0  0  0  0  0  0  0  0
    5.6913    0.0000    0.0000 O   0  0  0  0  0  0  0  0  0  0  0  0
  1  2  1  0  0  0  0
  2  3  1  0  0  0  0
  3  4  1  0  0  0  0
  4  5  1  0  0  0  0
  5  6  2  0  0  0  0
  6  7  1  0  0  0  0
  7  8  2  0  0  0  0
  8  9  1  0  0  0  0
  9 10  2  0  0  0  0
  5 10  1  0  0  0  0
  1 10  1  0  0  0  0
  9 11  1  0  0  0  0
  7 12  1  0  0  0  0
  3 13  1  0  0  0  0
 13 14  2  0  0  0  0
 14 15  1  0  0  0  0
 15 16  2  0  0  0  0
 16 17  1  0  0  0  0
 17 18  2  0  0  0  0
 13 18  1  0  0  0  0
 16 19  1  0  0  0  0
 15 20  1  0  0  0  0
  2 21  1  0  0  0  0
M  END
>  <Name>
(+)-Catechin Hydrate

>  <CAS>
225937-10-0

>  <Formula>
C15H14O7

>  <MolWt>
308.28 

>  <Bioactivity>
An antioxidant flavonoid of plant origin; a free radical scavenger,preventing free radical-mediated damage in a variety of biological systems. For example,at physiological pH catechin suppressed DNA strand breaks by hydroxyl radicals.

>  <Pathways>
Immunology/Inflammation

>  <Target>
ROS 

>  <Receptor>
antioxidant

>  <Reference>
1. Mehra P, et al. Indian J Exp Biol. 2013 Oct;51(10):823-7.

$$$$
6138-41-6
  Mrv1561503291623562D          

 11 10  0  0  0  0            999 V2000
    0.2143    0.5362    0.0000 C   0  0  0  0  0  0  0  0  0  0  0  0
    0.2143   -0.2887    0.0000 C   0  0  0  0  0  0  0  0  0  0  0  0
   -0.5001   -0.7012    0.0000 C   0  0  0  0  0  0  0  0  0  0  0  0
   -1.2146   -0.2887    0.0000 C   0  0  0  0  0  0  0  0  0  0  0  0
   -1.2146    0.5362    0.0000 C   0  0  0  0  0  0  0  0  0  0  0  0
   -0.5001    0.9487    0.0000 N   0  3  0  0  0  0  0  0  0  0  0  0
   -0.5001    1.7737    0.0000 C   0  0  0  0  0  0  0  0  0  0  0  0
    0.9288   -0.7012    0.0000 C   0  0  0  0  0  0  0  0  0  0  0  0
    1.6433   -0.2887    0.0000 O   0  0  0  0  0  0  0  0  0  0  0  0
    0.9288   -1.5263    0.0000 O   0  0  0  0  0  0  0  0  0  0  0  0
    4.0004    0.0000    0.0000 Cl  0  5  0  0  0  0  0  0  0  0  0  0
  1  2  2  0  0  0  0
  2  3  1  0  0  0  0
  3  4  2  0  0  0  0
  4  5  1  0  0  0  0
  5  6  2  0  0  0  0
  1  6  1  0  0  0  0
  6  7  1  0  0  0  0
  2  8  1  0  0  0  0
  8  9  1  0  0  0  0
  8 10  2  0  0  0  0
M  CHG  2   6   1  11  -1
M  END
>  <Name>
Trigonelline HCl

>  <CAS>
6138-41-6

>  <Formula>
C7H8ClNO2

>  <MolWt>
173.60 

>  <Bioactivity>
Extracted from Trigonellafoenum-graecumL. seeds;Store the product in sealed, cool and dry condition

>  <Pathways>
Others

>  <Target>
Others

>  <Receptor>
Others

>  <Reference>
1. Zhang DF, et al. Asian Pac J Trop Med. 2015 Aug;8(8):651-4. 

$$$$
327-97-9
  Mrv1561503291623562D          

 25 26  0  0  1  0            999 V2000
    0.7145   -3.7125    0.0000 C   0  0  2  0  0  0  0  0  0  0  0  0
    0.1842   -3.0805    0.0000 O   0  0  0  0  0  0  0  0  0  0  0  0
    1.4289   -4.1250    0.0000 C   0  0  0  0  0  0  0  0  0  0  0  0
    1.4289   -4.9500    0.0000 C   0  0  1  0  0  0  0  0  0  0  0  0
    2.1434   -5.3625    0.0000 O   0  0  0  0  0  0  0  0  0  0  0  0
    2.1434   -6.1875    0.0000 C   0  0  0  0  0  0  0  0  0  0  0  0
    1.4289   -6.6000    0.0000 O   0  0  0  0  0  0  0  0  0  0  0  0
    2.8579   -6.6000    0.0000 C   0  0  0  0  0  0  0  0  0  0  0  0
    3.5724   -6.1875    0.0000 C   0  0  0  0  0  0  0  0  0  0  0  0
    4.2868   -6.6000    0.0000 C   0  0  0  0  0  0  0  0  0  0  0  0
    5.0013   -6.1875    0.0000 C   0  0  0  0  0  0  0  0  0  0  0  0
    5.7158   -6.6000    0.0000 C   0  0  0  0  0  0  0  0  0  0  0  0
    5.7158   -7.4250    0.0000 C   0  0  0  0  0  0  0  0  0  0  0  0
    6.4302   -7.8375    0.0000 O   0  0  0  0  0  0  0  0  0  0  0  0
    5.0013   -7.8375    0.0000 C   0  0  0  0  0  0  0  0  0  0  0  0
    4.2868   -7.4250    0.0000 C   0  0  0  0  0  0  0  0  0  0  0  0
    6.4302   -6.1875    0.0000 O   0  0  0  0  0  0  0  0  0  0  0  0
    0.7145   -5.3625    0.0000 C   0  0  2  0  0  0  0  0  0  0  0  0
    0.7145   -6.1875    0.0000 O   0  0  0  0  0  0  0  0  0  0  0  0
   -0.0000   -4.9500    0.0000 C   0  0  2  0  0  0  0  0  0  0  0  0
   -0.7145   -5.3625    0.0000 O   0  0  0  0  0  0  0  0  0  0  0  0
   -0.0000   -4.1250    0.0000 C   0  0  0  0  0  0  0  0  0  0  0  0
    1.2448   -3.0805    0.0000 C   0  0  0  0  0  0  0  0  0  0  0  0
    0.9626   -2.3053    0.0000 O   0  0  0  0  0  0  0  0  0  0  0  0
    2.0572   -3.2238    0.0000 O   0  0  0  0  0  0  0  0  0  0  0  0
  1  2  1  6  0  0  0
  1  3  1  0  0  0  0
  3  4  1  0  0  0  0
  4  5  1  1  0  0  0
  5  6  1  0  0  0  0
  6  7  2  0  0  0  0
  6  8  1  0  0  0  0
  8  9  2  0  0  0  0
  9 10  1  0  0  0  0
 10 11  2  0  0  0  0
 11 12  1  0  0  0  0
 12 13  2  0  0  0  0
 13 14  1  0  0  0  0
 13 15  1  0  0  0  0
 15 16  2  0  0  0  0
 10 16  1  0  0  0  0
 12 17  1  0  0  0  0
  4 18  1  0  0  0  0
 18 19  1  6  0  0  0
 18 20  1  0  0  0  0
 20 21  1  6  0  0  0
 20 22  1  0  0  0  0
  1 22  1  0  0  0  0
  1 23  1  1  0  0  0
 23 24  2  0  0  0  0
 23 25  1  0  0  0  0
M  END
>  <Name>
Chlorogenic Acid

>  <CAS>
327-97-9

>  <Formula>
C16H18O9

>  <MolWt>
354.32 

>  <Bioactivity>
Extracted from Lonicera acuminata.Wall.;Suitability:Ethanol and acetone;Store the product in sealed,cool and dry condition

>  <Pathways>
Others

>  <Target>
Others

>  <Receptor>
Others

>  <Reference>
1. Illing EA, et al. Otolaryngol Head Neck Surg. 2015 Aug;153(2):291-7.

$$$$
T2898
  Mrv1561503291623562D          

 25 27  0  0  1  0            999 V2000
    0.7145   -1.2375    0.0000 C   0  0  1  0  0  0  0  0  0  0  0  0
    0.7145   -0.4125    0.0000 C   0  0  0  0  0  0  0  0  0  0  0  0
   -0.0000    0.0000    0.0000 C   0  0  0  0  0  0  0  0  0  0  0  0
   -0.7145   -0.4125    0.0000 C   0  0  0  0  0  0  0  0  0  0  0  0
   -1.4289   -0.0000    0.0000 O   0  0  0  0  0  0  0  0  0  0  0  0
   -0.7145   -1.2375    0.0000 C   0  0  0  0  0  0  0  0  0  0  0  0
    0.0000   -1.6500    0.0000 C   0  0  0  0  0  0  0  0  0  0  0  0
    0.3873    0.7284    0.0000 C   0  0  0  0  0  0  0  0  0  0  0  0
   -0.0499    1.4281    0.0000 O   0  0  0  0  0  0  0  0  0  0  0  0
   -0.3873    0.7284    0.0000 C   0  0  0  0  0  0  0  0  0  0  0  0
    1.4289    0.0000    0.0000 C   0  0  0  0  0  0  0  0  0  0  0  0
    2.1434   -0.4125    0.0000 C   0  0  0  0  0  0  0  0  0  0  0  0
    2.1434   -1.2375    0.0000 C   0  0  0  0  0  0  0  0  0  0  0  0
    1.4289   -1.6500    0.0000 C   0  0  1  0  0  0  0  0  0  0  0  0
    1.4289   -2.4750    0.0000 C   0  0  0  0  0  0  0  0  0  0  0  0
    2.1434   -2.8875    0.0000 C   0  0  0  0  0  0  0  0  0  0  0  0
    2.1434   -3.7125    0.0000 C   0  0  0  0  0  0  0  0  0  0  0  0
    2.8109   -4.1974    0.0000 C   0  0  0  0  0  0  0  0  0  0  0  0
    2.5559   -4.9820    0.0000 O   0  0  0  0  0  0  0  0  0  0  0  0
    1.7309   -4.9820    0.0000 C   0  0  0  0  0  0  0  0  0  0  0  0
    1.4760   -4.1974    0.0000 C   0  0  0  0  0  0  0  0  0  0  0  0
    0.6914   -3.9425    0.0000 O   0  0  0  0  0  0  0  0  0  0  0  0
    3.5955   -3.9425    0.0000 O   0  0  0  0  0  0  0  0  0  0  0  0
    2.8579   -1.6500    0.0000 C   0  0  0  0  0  0  0  0  0  0  0  0
    0.7145   -2.0625    0.0000 C   0  0  0  0  0  0  0  0  0  0  0  0
  1  2  1  0  0  0  0
  2  3  1  0  0  0  0
  3  4  1  0  0  0  0
  4  5  1  0  0  0  0
  4  6  1  0  0  0  0
  6  7  1  0  0  0  0
  1  7  1  0  0  0  0
  3  8  1  0  0  0  0
  8  9  1  0  0  0  0
  3 10  1  0  0  0  0
  2 11  1  0  0  0  0
 11 12  1  0  0  0  0
 12 13  1  0  0  0  0
 13 14  1  0  0  0  0
  1 14  1  0  0  0  0
 14 15  1  1  0  0  0
 15 16  1  0  0  0  0
 16 17  2  0  0  0  0
 17 18  1  0  0  0  0
 18 19  1  0  0  0  0
 19 20  1  0  0  0  0
 20 21  1  0  0  0  0
 17 21  1  0  0  0  0
 21 22  1  0  0  0  0
 18 23  2  0  0  0  0
 13 24  2  0  0  0  0
  1 25  1  1  0  0  0
M  END
>  <Name>
Andrographolide

>  <CAS>
5508-58-7

>  <Formula>
C20H30O5

>  <MolWt>
350.44 

>  <Bioactivity>
Inhibitor of NF-?B signaling; also attenuates concanavaline-induced IFN? production in murine T cells (IC50 = 1.7 ?M). Blocks androgen receptor (AR) expression in AR-expressing C4-2 cells. Activates Nrf2 in BEAS-2B cells in response to cigarette smoke extract.

>  <Pathways>
Immunology/Inflammation

>  <Target>
NF-?B inhibitor

>  <Receptor>
NF-?B

>  <Reference>
1. Li GF, Qin YH, Du PQ. Life Sci. 2015 Sep 1;136:67-72. 

$$$$
484-12-8
  Mrv1561503291623562D          

 18 19  0  0  0  0            999 V2000
   -0.0000    0.0000    0.0000 C   0  0  0  0  0  0  0  0  0  0  0  0
   -0.7145   -0.4125    0.0000 C   0  0  0  0  0  0  0  0  0  0  0  0
   -0.7145   -1.2375    0.0000 C   0  0  0  0  0  0  0  0  0  0  0  0
   -0.0000   -1.6500    0.0000 C   0  0  0  0  0  0  0  0  0  0  0  0
    0.7145   -1.2375    0.0000 C   0  0  0  0  0  0  0  0  0  0  0  0
    0.7145   -0.4125    0.0000 C   0  0  0  0  0  0  0  0  0  0  0  0
    1.4289    0.0000    0.0000 C   0  0  0  0  0  0  0  0  0  0  0  0
    2.1434   -0.4125    0.0000 C   0  0  0  0  0  0  0  0  0  0  0  0
    2.1434   -1.2375    0.0000 C   0  0  0  0  0  0  0  0  0  0  0  0
    1.4289   -1.6500    0.0000 O   0  0  0  0  0  0  0  0  0  0  0  0
    2.8579   -1.6500    0.0000 O   0  0  0  0  0  0  0  0  0  0  0  0
   -0.0000   -2.4750    0.0000 C   0  0  0  0  0  0  0  0  0  0  0  0
    0.7145   -2.8875    0.0000 C   0  0  0  0  0  0  0  0  0  0  0  0
    0.7145   -3.7125    0.0000 C   0  0  0  0  0  0  0  0  0  0  0  0
    1.4289   -4.1250    0.0000 C   0  0  0  0  0  0  0  0  0  0  0  0
   -0.0000   -4.1250    0.0000 C   0  0  0  0  0  0  0  0  0  0  0  0
   -1.4289   -1.6500    0.0000 O   0  0  0  0  0  0  0  0  0  0  0  0
   -1.4289   -2.4750    0.0000 C   0  0  0  0  0  0  0  0  0  0  0  0
  1  2  2  0  0  0  0
  2  3  1  0  0  0  0
  3  4  2  0  0  0  0
  4  5  1  0  0  0  0
  5  6  2  0  0  0  0
  1  6  1  0  0  0  0
  6  7  1  0  0  0  0
  7  8  2  0  0  0  0
  8  9  1  0  0  0  0
  9 10  1  0  0  0  0
  5 10  1  0  0  0  0
  9 11  2  0  0  0  0
  4 12  1  0  0  0  0
 12 13  1  0  0  0  0
 13 14  2  0  0  0  0
 14 15  1  0  0  0  0
 14 16  1  0  0  0  0
  3 17  1  0  0  0  0
 17 18  1  0  0  0  0
M  END
>  <Name>
Osthole

>  <CAS>
484-12-8

>  <Formula>
C15H16O3

>  <MolWt>
244.29 

>  <Bioactivity>
Active constituent of Cnidium monnieri,a traditional Chinese medicine used for its anti-inflammatory,analgesic,and anti-lipedemic activities. 

>  <Pathways>
Others

>  <Target>
Others

>  <Receptor>
Others

>  <Reference>
1. Ko FN, et al. Thromb Haemost, 1989, 62(3), 996-999.

$$$$
T0607
  Mrv1561503291623562D          

 20 23  0  0  1  0            999 V2000
    3.4397    1.5425    0.0000 C   0  0  1  0  0  0  0  0  0  0  0  0
    3.6783    0.5917    0.0000 O   0  0  0  0  0  0  0  0  0  0  0  0
    4.4045    0.1313    0.0000 O   0  0  0  0  0  0  0  0  0  0  0  0
    4.8609    0.8400    0.0000 C   0  0  0  0  0  0  0  0  0  0  0  0
    4.0289    1.0529    0.0000 O   0  0  0  0  0  0  0  0  0  0  0  0
    3.0962    0.8322    0.0000 C   0  0  1  0  0  0  0  0  0  0  0  0
    2.2814    0.5616    0.0000 O   0  0  0  0  0  0  0  0  0  0  0  0
    1.5762    1.0192    0.0000 C   0  0  2  0  0  0  0  0  0  0  0  0
    0.7938    0.7578    0.0000 O   0  0  0  0  0  0  0  0  0  0  0  0
    1.8648    1.8093    0.0000 C   0  0  1  0  0  0  0  0  0  0  0  0
    2.6974    2.0420    0.0000 C   0  0  2  0  0  0  0  0  0  0  0  0
    2.6013    2.8969    0.0000 C   0  0  0  0  0  0  0  0  0  0  0  0
    3.1648    3.5164    0.0000 C   0  0  0  0  0  0  0  0  0  0  0  0
    3.8840    3.0853    0.0000 C   0  0  2  0  0  0  0  0  0  0  0  0
    4.0004    2.2380    0.0000 C   0  0  2  0  0  0  0  0  0  0  0  0
    4.8579    2.2268    0.0000 C   0  0  0  0  0  0  0  0  0  0  0  0
    5.3467    1.5377    0.0000 C   0  0  0  0  0  0  0  0  0  0  0  0
    4.5724    3.5399    0.0000 C   0  0  0  0  0  0  0  0  0  0  0  0
    1.3045    2.4149    0.0000 C   0  0  0  0  0  0  0  0  0  0  0  0
    5.5464    0.3809    0.0000 C   0  0  0  0  0  0  0  0  0  0  0  0
  1  2  1  1  0  0  0
  2  3  1  0  0  0  0
  3  4  1  0  0  0  0
  4  5  1  0  0  0  0
  6  5  1  1  0  0  0
  1  6  1  0  0  0  0
  6  7  1  0  0  0  0
  7  8  1  0  0  0  0
  8  9  1  6  0  0  0
  8 10  1  0  0  0  0
 10 11  1  0  0  0  0
  1 11  1  0  0  0  0
 11 12  1  6  0  0  0
 12 13  1  0  0  0  0
 13 14  1  0  0  0  0
 14 15  1  0  0  0  0
  1 15  1  0  0  0  0
 15 16  1  6  0  0  0
 16 17  1  0  0  0  0
  4 17  1  0  0  0  0
 14 18  1  1  0  0  0
 10 19  1  6  0  0  0
  4 20  1  0  0  0  0
M  END
>  <Name>
Dihydroartemisinin

>  <CAS>
71939-50-9

>  <Formula>
C15H24O5

>  <MolWt>
284.35 

>  <Bioactivity>
Dihydroartemisinin (DHA) is a semi-synthetic derivative of artemisinin and isolated from the traditional Chinese herb Artemisia annua.

>  <Pathways>
Others

>  <Target>
Others

>  <Receptor>
Others

>  <Reference>
1. Yang D, et al. Int J Clin Exp Pathol. 2015 Feb 1;8(2):1270-81.

$$$$
T0366
  Mrv1561503291623562D          

 25 27  0  0  1  0            999 V2000
    0.5635   -0.9760    0.0000 C   0  0  2  0  0  0  0  0  0  0  0  0
    0.5635   -0.1510    0.0000 N   0  0  0  0  0  0  0  0  0  0  0  0
    1.2780    0.2615    0.0000 C   0  0  0  0  0  0  0  0  0  0  0  0
    1.9924   -0.1510    0.0000 C   0  0  0  0  0  0  0  0  0  0  0  0
    2.7069    0.2615    0.0000 C   0  0  0  0  0  0  0  0  0  0  0  0
    1.9924   -0.9760    0.0000 C   0  0  0  0  0  0  0  0  0  0  0  0
    1.2780   -1.3885    0.0000 S   0  0  0  0  0  0  0  0  0  0  0  0
    1.2780    1.0865    0.0000 C   0  0  0  0  0  0  0  0  0  0  0  0
    1.9924    1.4990    0.0000 O   0  0  0  0  0  0  0  0  0  0  0  0
    0.5635    1.4990    0.0000 O   0  0  0  0  0  0  0  0  0  0  0  0
   -0.2615   -0.1510    0.0000 C   0  0  0  0  0  0  0  0  0  0  0  0
   -0.8449    0.4324    0.0000 O   0  0  0  0  0  0  0  0  0  0  0  0
   -0.2615   -0.9760    0.0000 C   0  0  1  0  0  0  0  0  0  0  0  0
   -0.8449   -1.5593    0.0000 N   0  0  0  0  0  0  0  0  0  0  0  0
   -1.6418   -1.3458    0.0000 C   0  0  0  0  0  0  0  0  0  0  0  0
   -2.2251   -1.9292    0.0000 C   0  0  1  0  0  0  0  0  0  0  0  0
   -3.0220   -1.7157    0.0000 C   0  0  0  0  0  0  0  0  0  0  0  0
   -3.6054   -2.2990    0.0000 C   0  0  0  0  0  0  0  0  0  0  0  0
   -4.4023   -2.0855    0.0000 C   0  0  0  0  0  0  0  0  0  0  0  0
   -4.6158   -1.2886    0.0000 C   0  0  0  0  0  0  0  0  0  0  0  0
   -5.4127   -1.0751    0.0000 O   0  0  0  0  0  0  0  0  0  0  0  0
   -4.0324   -0.7052    0.0000 C   0  0  0  0  0  0  0  0  0  0  0  0
   -3.2355   -0.9188    0.0000 C   0  0  0  0  0  0  0  0  0  0  0  0
   -2.0116   -2.7261    0.0000 N   0  0  0  0  0  0  0  0  0  0  0  0
   -1.8553   -0.5489    0.0000 O   0  0  0  0  0  0  0  0  0  0  0  0
  1  2  1  6  0  0  0
  2  3  1  0  0  0  0
  3  4  2  0  0  0  0
  4  5  1  0  0  0  0
  4  6  1  0  0  0  0
  6  7  1  0  0  0  0
  1  7  1  0  0  0  0
  3  8  1  0  0  0  0
  8  9  1  0  0  0  0
  8 10  2  0  0  0  0
  2 11  1  0  0  0  0
 11 12  2  0  0  0  0
 11 13  1  0  0  0  0
  1 13  1  0  0  0  0
 13 14  1  6  0  0  0
 14 15  1  0  0  0  0
 15 16  1  0  0  0  0
 16 17  1  0  0  0  0
 17 18  2  0  0  0  0
 18 19  1  0  0  0  0
 19 20  2  0  0  0  0
 20 21  1  0  0  0  0
 20 22  1  0  0  0  0
 22 23  2  0  0  0  0
 17 23  1  0  0  0  0
 16 24  1  6  0  0  0
 15 25  2  0  0  0  0
M  END
>  <Name>
Cefadroxil

>  <CAS>
50370-12-2

>  <Formula>
C16H17N3O5S

>  <MolWt>
363.39 

>  <Bioactivity>
Long-acting, broad-spectrum, water-soluble, cephalexin derivative. 

>  <Pathways>
Microbiology & Virology

>  <Target>
Antibiotic

>  <Receptor>
PBPs

>  <Reference>
1. Williamson R, et al. Antimicrob Agents Chemother. 1980 Oct;18(4):629-37.

$$$$
T1034
  Mrv1561503291623562D          

 58 63  0  0  1  0            999 V2000
   -0.7991   -0.5360    0.0000 C   0  0  1  0  0  0  0  0  0  0  0  0
   -0.0407   -0.2114    0.0000 C   0  0  1  0  0  0  0  0  0  0  0  0
    0.5079   -0.8683    0.0000 C   0  0  1  0  0  0  0  0  0  0  0  0
    1.3678   -1.0194    0.0000 C   0  0  1  0  0  0  0  0  0  0  0  0
    1.6925   -0.3340    0.0000 C   0  0  0  0  0  0  0  0  0  0  0  0
    2.1323    0.2839    0.0000 C   0  0  0  0  0  0  0  0  0  0  0  0
    2.8590   -0.1878    0.0000 C   0  0  0  0  0  0  0  0  0  0  0  0
    3.5782    0.2165    0.0000 C   0  0  0  0  0  0  0  0  0  0  0  0
    2.8837   -1.0328    0.0000 C   0  0  2  0  0  0  0  0  0  0  0  0
    2.1341   -1.4236    0.0000 C   0  0  0  0  0  0  0  0  0  0  0  0
    3.5953   -1.4502    0.0000 O   0  0  0  0  0  0  0  0  0  0  0  0
    4.3126   -1.0427    0.0000 C   0  0  0  0  0  0  0  0  0  0  0  0
    5.0242   -1.4601    0.0000 C   0  0  1  0  0  0  0  0  0  0  0  0
    5.7415   -1.0525    0.0000 C   0  0  2  0  0  0  0  0  0  0  0  0
    5.7472   -0.2276    0.0000 C   0  0  0  0  0  0  0  0  0  0  0  0
    5.0356    0.1899    0.0000 C   0  0  0  0  0  0  0  0  0  0  0  0
    5.0413    1.0148    0.0000 C   0  0  0  0  0  0  0  0  0  0  0  0
    5.7587    1.4224    0.0000 C   0  0  0  0  0  0  0  0  0  0  0  0
    6.4703    1.0050    0.0000 C   0  0  0  0  0  0  0  0  0  0  0  0
    6.4645    0.1800    0.0000 C   0  0  0  0  0  0  0  0  0  0  0  0
    6.4531   -1.4700    0.0000 N   0  0  0  0  0  0  0  0  0  0  0  0
    7.1704   -1.0624    0.0000 C   0  0  0  0  0  0  0  0  0  0  0  0
    7.8820   -1.4799    0.0000 O   0  0  0  0  0  0  0  0  0  0  0  0
    8.5993   -1.0723    0.0000 C   0  0  0  0  0  0  0  0  0  0  0  0
    9.3167   -0.6648    0.0000 C   0  0  0  0  0  0  0  0  0  0  0  0
    8.1918   -0.3550    0.0000 C   0  0  0  0  0  0  0  0  0  0  0  0
    9.0069   -1.7896    0.0000 C   0  0  0  0  0  0  0  0  0  0  0  0
    7.1761   -0.2375    0.0000 O   0  0  0  0  0  0  0  0  0  0  0  0
    5.0185   -2.2851    0.0000 O   0  0  0  0  0  0  0  0  0  0  0  0
    4.3183   -0.2177    0.0000 O   0  0  0  0  0  0  0  0  0  0  0  0
    1.5808    0.9607    0.0000 C   0  0  2  0  0  0  0  0  0  0  0  0
    0.7397    1.1190    0.0000 C   0  0  0  0  0  0  0  0  0  0  0  0
    0.0574    0.6078    0.0000 C   0  0  2  0  0  0  0  0  0  0  0  0
   -0.6030    1.1023    0.0000 C   0  0  1  0  0  0  0  0  0  0  0  0
   -0.5049    1.9214    0.0000 O   0  0  0  0  0  0  0  0  0  0  0  0
   -1.3614    0.7776    0.0000 C   0  0  0  0  0  0  0  0  0  0  0  0
   -1.4595   -0.0415    0.0000 C   0  0  1  0  0  0  0  0  0  0  0  0
   -1.9540   -0.7019    0.0000 O   0  0  0  0  0  0  0  0  0  0  0  0
   -1.2936   -1.1964    0.0000 C   0  0  0  0  0  0  0  0  0  0  0  0
    0.0573    1.4328    0.0000 C   0  0  0  0  0  0  0  0  0  0  0  0
    0.5529    1.9225    0.0000 O   0  0  0  0  0  0  0  0  0  0  0  0
    2.0025    1.6698    0.0000 O   0  0  0  0  0  0  0  0  0  0  0  0
    0.8760   -0.2161    0.0000 C   0  0  0  0  0  0  0  0  0  0  0  0
    1.1912    0.3211    0.0000 C   0  0  0  0  0  0  0  0  0  0  0  0
    1.1007   -1.8000    0.0000 O   0  0  0  0  0  0  0  0  0  0  0  0
    0.0948   -1.5824    0.0000 O   0  0  0  0  0  0  0  0  0  0  0  0
    0.5066   -2.2972    0.0000 C   0  0  0  0  0  0  0  0  0  0  0  0
    0.0935   -3.0113    0.0000 C   0  0  0  0  0  0  0  0  0  0  0  0
    0.5053   -3.7261    0.0000 C   0  0  0  0  0  0  0  0  0  0  0  0
    0.0922   -4.4402    0.0000 C   0  0  0  0  0  0  0  0  0  0  0  0
   -0.7328   -4.4395    0.0000 C   0  0  0  0  0  0  0  0  0  0  0  0
   -1.1447   -3.7247    0.0000 C   0  0  0  0  0  0  0  0  0  0  0  0
   -0.7315   -3.0106    0.0000 C   0  0  0  0  0  0  0  0  0  0  0  0
    1.3316   -2.2979    0.0000 O   0  0  0  0  0  0  0  0  0  0  0  0
   -0.2892   -1.1846    0.0000 O   0  0  0  0  0  0  0  0  0  0  0  0
   -0.5960   -1.9505    0.0000 C   0  0  0  0  0  0  0  0  0  0  0  0
   -0.0861   -2.5990    0.0000 C   0  0  0  0  0  0  0  0  0  0  0  0
   -1.4126   -2.0677    0.0000 O   0  0  0  0  0  0  0  0  0  0  0  0
  1  2  1  0  0  0  0
  2  3  1  0  0  0  0
  3  4  1  0  0  0  0
  4  5  1  0  0  0  0
  5  6  1  0  0  0  0
  6  7  2  0  0  0  0
  7  8  1  0  0  0  0
  7  9  1  0  0  0  0
  9 10  1  0  0  0  0
  4 10  1  0  0  0  0
  9 11  1  1  0  0  0
 11 12  1  0  0  0  0
 12 13  1  0  0  0  0
 13 14  1  0  0  0  0
 14 15  1  0  0  0  0
 15 16  2  0  0  0  0
 16 17  1  0  0  0  0
 17 18  2  0  0  0  0
 18 19  1  0  0  0  0
 19 20  2  0  0  0  0
 15 20  1  0  0  0  0
 14 21  1  6  0  0  0
 21 22  1  0  0  0  0
 22 23  1  0  0  0  0
 23 24  1  0  0  0  0
 24 25  1  0  0  0  0
 24 26  1  0  0  0  0
 24 27  1  0  0  0  0
 22 28  2  0  0  0  0
 13 29  1  1  0  0  0
 12 30  2  0  0  0  0
  6 31  1  0  0  0  0
 31 32  1  0  0  0  0
 32 33  1  0  0  0  0
  2 33  1  6  0  0  0
 33 34  1  0  0  0  0
 34 35  1  6  0  0  0
 34 36  1  0  0  0  0
 36 37  1  0  0  0  0
  1 37  1  0  0  0  0
 37 38  1  6  0  0  0
 38 39  1  0  0  0  0
  1 39  1  0  0  0  0
 33 40  1  6  0  0  0
 32 41  2  0  0  0  0
 31 42  1  6  0  0  0
  5 43  1  0  0  0  0
  5 44  1  0  0  0  0
  4 45  1  6  0  0  0
  3 46  1  1  0  0  0
 46 47  1  0  0  0  0
 47 48  1  0  0  0  0
 48 49  2  0  0  0  0
 49 50  1  0  0  0  0
 50 51  2  0  0  0  0
 51 52  1  0  0  0  0
 52 53  2  0  0  0  0
 48 53  1  0  0  0  0
 47 54  2  0  0  0  0
  1 55  1  1  0  0  0
 55 56  1  0  0  0  0
 56 57  1  0  0  0  0
 56 58  2  0  0  0  0
M  END
>  <Name>
Docetaxel

>  <CAS>
114977-28-5

>  <Formula>
C43H53NO14

>  <MolWt>
807.88 

>  <Bioactivity>
Docetaxel is a clinically well established anti-mitotic chemotherapy medication used mainly for the treatment of breast, ovarian, and non-small cell lung cancer. Docetaxel binds to microtubules reversibly with high affinity and has a maximum stoichiometry of one mole docetaxel per mole tubulin in microtubules.


>  <Pathways>
Cell Cycle/Checkpoint

>  <Target>
Bcl-2 inhibitor; Microtubule Assosiated inhibitor

>  <Receptor>
Bcl-2;Tubulin chain

>  <Reference>
1. Matesanz R, et al. Chem Biol. 2008 Jun;15(6):573-85. 

$$$$
57-64-7
  Mrv1561503291623562D          

 30 32  0  0  1  0            999 V2000
   -1.2082   -0.9835    0.0000 C   0  0  2  0  0  0  0  0  0  0  0  0
   -0.5504   -1.4814    0.0000 N   0  3  0  0  0  0  0  0  0  0  0  0
    0.1264   -1.0098    0.0000 C   0  0  0  0  0  0  0  0  0  0  0  0
   -0.1130   -0.2203    0.0000 C   0  0  0  0  0  0  0  0  0  0  0  0
   -0.9378   -0.2040    0.0000 C   0  0  2  0  0  0  0  0  0  0  0  0
   -1.5956    0.2940    0.0000 C   0  0  0  0  0  0  0  0  0  0  0  0
   -2.2724   -0.1777    0.0000 C   0  0  0  0  0  0  0  0  0  0  0  0
   -2.0330   -0.9672    0.0000 N   0  3  0  0  0  0  0  0  0  0  0  0
   -2.5310   -1.6249    0.0000 C   0  0  0  0  0  0  0  0  0  0  0  0
   -0.6675    0.5754    0.0000 C   0  0  0  0  0  0  0  0  0  0  0  0
    0.4510    0.3818    0.0000 C   0  0  0  0  0  0  0  0  0  0  0  0
    1.2545    0.1944    0.0000 C   0  0  0  0  0  0  0  0  0  0  0  0
    1.8185    0.7965    0.0000 O   0  0  0  0  0  0  0  0  0  0  0  0
    1.5791    1.5860    0.0000 C   0  0  0  0  0  0  0  0  0  0  0  0
    0.7756    1.7734    0.0000 O   0  0  0  0  0  0  0  0  0  0  0  0
    2.1431    2.1881    0.0000 N   0  0  0  0  0  0  0  0  0  0  0  0
    1.9036    2.9776    0.0000 C   0  0  0  0  0  0  0  0  0  0  0  0
    1.4939   -0.5951    0.0000 C   0  0  0  0  0  0  0  0  0  0  0  0
    0.9299   -1.1972    0.0000 C   0  0  0  0  0  0  0  0  0  0  0  0
   -0.5667   -2.3063    0.0000 C   0  0  0  0  0  0  0  0  0  0  0  0
    5.8113   -0.8662    0.0000 C   0  0  0  0  0  0  0  0  0  0  0  0
    5.8113   -0.0413    0.0000 C   0  0  0  0  0  0  0  0  0  0  0  0
    6.5258    0.3712    0.0000 C   0  0  0  0  0  0  0  0  0  0  0  0
    7.2402   -0.0413    0.0000 C   0  0  0  0  0  0  0  0  0  0  0  0
    7.2402   -0.8663    0.0000 C   0  0  0  0  0  0  0  0  0  0  0  0
    6.5258   -1.2787    0.0000 C   0  0  0  0  0  0  0  0  0  0  0  0
    6.5258    1.1962    0.0000 O   0  5  0  0  0  0  0  0  0  0  0  0
    5.0968    0.3712    0.0000 C   0  0  0  0  0  0  0  0  0  0  0  0
    4.3824   -0.0413    0.0000 O   0  5  0  0  0  0  0  0  0  0  0  0
    5.0968    1.1963    0.0000 O   0  0  0  0  0  0  0  0  0  0  0  0
  1  2  1  1  0  0  0
  2  3  1  0  0  0  0
  3  4  2  0  0  0  0
  4  5  1  0  0  0  0
  1  5  1  0  0  0  0
  5  6  1  0  0  0  0
  6  7  1  0  0  0  0
  7  8  1  0  0  0  0
  1  8  1  0  0  0  0
  8  9  1  0  0  0  0
  5 10  1  6  0  0  0
  4 11  1  0  0  0  0
 11 12  2  0  0  0  0
 12 13  1  0  0  0  0
 13 14  1  0  0  0  0
 14 15  2  0  0  0  0
 14 16  1  0  0  0  0
 16 17  1  0  0  0  0
 12 18  1  0  0  0  0
 18 19  2  0  0  0  0
  3 19  1  0  0  0  0
  2 20  1  0  0  0  0
 21 22  2  0  0  0  0
 22 23  1  0  0  0  0
 23 24  2  0  0  0  0
 24 25  1  0  0  0  0
 25 26  2  0  0  0  0
 21 26  1  0  0  0  0
 23 27  1  0  0  0  0
 22 28  1  0  0  0  0
 28 29  1  0  0  0  0
 28 30  2  0  0  0  0
M  CHG  4   2   1   8   1  27  -1  29  -1
M  END
>  <Name>
Physostigmine Salicylate

>  <CAS>
57-64-7

>  <Formula>
C22H27N3O5

>  <MolWt>
413.48 

>  <Bioactivity>
Physostigmine is a parasympathomimetic alkaloid, specifically, a reversible cholinesterase inhibitor. It occurs naturally in the Calabar bean.

>  <Pathways>
Neuroscience

>  <Target>
ChE inhibitor

>  <Receptor>
ChE

>  <Reference>
1. Lim DK, et al. Pharmacol Biochem Behav. 1988 Nov;31(3):627-31.

$$$$
T1102
  Mrv1561503291623562D          

 32 36  0  0  1  0            999 V2000
    1.5596   -2.8327    0.0000 C   0  0  1  0  0  0  0  0  0  0  0  0
    2.0914   -3.4634    0.0000 C   0  0  0  0  0  0  0  0  0  0  0  0
    2.9035   -3.3182    0.0000 C   0  0  0  0  0  0  0  0  0  0  0  0
    3.1838   -2.5422    0.0000 C   0  0  0  0  0  0  0  0  0  0  0  0
    3.9960   -2.3970    0.0000 C   0  0  0  0  0  0  0  0  0  0  0  0
    4.5278   -3.0277    0.0000 C   0  0  0  0  0  0  0  0  0  0  0  0
    5.3399   -2.8825    0.0000 O   0  0  0  0  0  0  0  0  0  0  0  0
    4.2475   -3.8037    0.0000 C   0  0  0  0  0  0  0  0  0  0  0  0
    3.4354   -3.9489    0.0000 C   0  0  0  0  0  0  0  0  0  0  0  0
    2.6520   -1.9115    0.0000 C   0  0  0  0  0  0  0  0  0  0  0  0
    1.8399   -2.0567    0.0000 C   0  0  0  0  0  0  0  0  0  0  0  0
    1.8111   -4.2393    0.0000 C   0  0  2  0  0  0  0  0  0  0  0  0
    0.9990   -4.3845    0.0000 C   0  0  0  0  0  0  0  0  0  0  0  0
    0.4672   -3.7538    0.0000 C   0  0  1  0  0  0  0  0  0  0  0  0
    0.7475   -2.9779    0.0000 C   0  0  1  0  0  0  0  0  0  0  0  0
    0.0962   -2.4715    0.0000 C   0  0  0  0  0  0  0  0  0  0  0  0
   -0.5867   -2.9345    0.0000 C   0  0  0  0  0  0  0  0  0  0  0  0
   -0.3574   -3.7270    0.0000 C   0  0  1  0  0  0  0  0  0  0  0  0
   -1.1183   -4.0459    0.0000 C   0  0  0  0  0  0  0  0  0  0  0  0
   -1.8791   -4.3647    0.0000 C   0  0  0  0  0  0  0  0  0  0  0  0
   -2.6400   -4.6836    0.0000 C   0  0  0  0  0  0  0  0  0  0  0  0
   -0.4788   -4.5430    0.0000 O   0  0  0  0  0  0  0  0  0  0  0  0
    0.1073   -4.4962    0.0000 C   0  0  0  0  0  0  0  0  0  0  0  0
    2.3429   -4.8700    0.0000 C   0  0  0  0  0  0  0  0  0  0  0  0
    3.1551   -4.7248    0.0000 C   0  0  0  0  0  0  0  0  0  0  0  0
    3.6869   -5.3555    0.0000 C   0  0  0  0  0  0  0  0  0  0  0  0
    3.4066   -6.1314    0.0000 C   0  0  0  0  0  0  0  0  0  0  0  0
    2.5945   -6.2766    0.0000 C   0  0  0  0  0  0  0  0  0  0  0  0
    2.0626   -5.6459    0.0000 C   0  0  0  0  0  0  0  0  0  0  0  0
    3.9384   -6.7621    0.0000 N   0  0  0  0  0  0  0  0  0  0  0  0
    3.6581   -7.5381    0.0000 C   0  0  0  0  0  0  0  0  0  0  0  0
    4.7505   -6.6169    0.0000 C   0  0  0  0  0  0  0  0  0  0  0  0
  1  2  1  0  0  0  0
  2  3  2  0  0  0  0
  3  4  1  0  0  0  0
  4  5  2  0  0  0  0
  5  6  1  0  0  0  0
  6  7  2  0  0  0  0
  6  8  1  0  0  0  0
  8  9  1  0  0  0  0
  3  9  1  0  0  0  0
  4 10  1  0  0  0  0
 10 11  1  0  0  0  0
  1 11  1  6  0  0  0
  2 12  1  0  0  0  0
 12 13  1  0  0  0  0
 13 14  1  0  0  0  0
 14 15  1  0  0  0  0
  1 15  1  0  0  0  0
 15 16  1  1  0  0  0
 16 17  1  0  0  0  0
 17 18  1  0  0  0  0
 14 18  1  0  0  0  0
 18 19  1  6  0  0  0
 19 20  3  0  0  0  0
 20 21  1  0  0  0  0
 18 22  1  1  0  0  0
 14 23  1  1  0  0  0
 12 24  1  1  0  0  0
 24 25  2  0  0  0  0
 25 26  1  0  0  0  0
 26 27  2  0  0  0  0
 27 28  1  0  0  0  0
 28 29  2  0  0  0  0
 24 29  1  0  0  0  0
 27 30  1  0  0  0  0
 30 31  1  0  0  0  0
 30 32  1  0  0  0  0
M  END
>  <Name>
Mifepristone

>  <CAS>
84371-65-3

>  <Formula>
C29H35NO2

>  <MolWt>
429.60 

>  <Bioactivity>
Mifepristone is a progestational and glucocorticoid hormone antagonist. Its inhibition of progesterone induces bleeding during the luteal phase and in early pregnancy by releasing endogenous prostaglandins from the endometrium or decidua. As a glucocorticoid receptor antagonist, the drug has been used to treat hypercortisolism in patients with nonpituitary CUSHING SYNDROME.


>  <Pathways>
Endocrinology/ Hormones

>  <Target>
Estrogen/Progestogen Receptor antagonist; Glucocorticoid Receptor antagonist; MRP inhibitor

>  <Receptor>
Estrogen/progestogen Receptor ;Glucocorticoid receptor;MRP1

>  <Reference>
1. Jiang W, et al. Bioorg Med Chem, 2006, 14(19), 6726-6732.

$$$$
T1076
  Mrv1561503291623562D          

 28 31  0  0  1  0            999 V2000
    0.7475   -2.9779    0.0000 C   0  0  1  0  0  0  0  0  0  0  0  0
    1.5596   -2.8327    0.0000 C   0  0  1  0  0  0  0  0  0  0  0  0
    2.0914   -3.4634    0.0000 C   0  0  1  0  0  0  0  0  0  0  0  0
    2.6232   -4.0941    0.0000 F   0  0  0  0  0  0  0  0  0  0  0  0
    2.9035   -3.3182    0.0000 C   0  0  2  0  0  0  0  0  0  0  0  0
    3.1838   -2.5422    0.0000 C   0  0  0  0  0  0  0  0  0  0  0  0
    3.9960   -2.3970    0.0000 C   0  0  0  0  0  0  0  0  0  0  0  0
    4.5278   -3.0277    0.0000 C   0  0  0  0  0  0  0  0  0  0  0  0
    5.3399   -2.8825    0.0000 O   0  0  0  0  0  0  0  0  0  0  0  0
    4.2475   -3.8037    0.0000 C   0  0  0  0  0  0  0  0  0  0  0  0
    3.4354   -3.9489    0.0000 C   0  0  0  0  0  0  0  0  0  0  0  0
    2.6520   -1.9115    0.0000 C   0  0  0  0  0  0  0  0  0  0  0  0
    1.8399   -2.0567    0.0000 C   0  0  0  0  0  0  0  0  0  0  0  0
    3.1329   -4.1106    0.0000 C   0  0  0  0  0  0  0  0  0  0  0  0
    1.8111   -4.2393    0.0000 C   0  0  1  0  0  0  0  0  0  0  0  0
    2.3429   -4.8700    0.0000 O   0  0  0  0  0  0  0  0  0  0  0  0
    0.9990   -4.3845    0.0000 C   0  0  0  0  0  0  0  0  0  0  0  0
    0.4672   -3.7538    0.0000 C   0  0  2  0  0  0  0  0  0  0  0  0
   -0.3574   -3.7270    0.0000 C   0  0  2  0  0  0  0  0  0  0  0  0
   -0.2978   -4.5498    0.0000 O   0  0  0  0  0  0  0  0  0  0  0  0
   -0.5867   -2.9345    0.0000 C   0  0  1  0  0  0  0  0  0  0  0  0
    0.0962   -2.4715    0.0000 C   0  0  0  0  0  0  0  0  0  0  0  0
   -1.3626   -2.6542    0.0000 C   0  0  0  0  0  0  0  0  0  0  0  0
   -1.1695   -3.8722    0.0000 C   0  0  0  0  0  0  0  0  0  0  0  0
   -1.7013   -3.2415    0.0000 O   0  0  0  0  0  0  0  0  0  0  0  0
   -1.4498   -4.6481    0.0000 C   0  0  0  0  0  0  0  0  0  0  0  0
   -0.9180   -5.2788    0.0000 O   0  0  0  0  0  0  0  0  0  0  0  0
    0.1073   -4.4962    0.0000 C   0  0  0  0  0  0  0  0  0  0  0  0
  1  2  1  0  0  0  0
  2  3  1  0  0  0  0
  3  4  1  6  0  0  0
  3  5  1  0  0  0  0
  5  6  1  0  0  0  0
  6  7  2  0  0  0  0
  7  8  1  0  0  0  0
  8  9  2  0  0  0  0
  8 10  1  0  0  0  0
 10 11  2  0  0  0  0
  5 11  1  0  0  0  0
  6 12  1  0  0  0  0
 12 13  1  0  0  0  0
  2 13  1  6  0  0  0
  5 14  1  1  0  0  0
  3 15  1  0  0  0  0
 15 16  1  1  0  0  0
 15 17  1  0  0  0  0
 17 18  1  0  0  0  0
  1 18  1  0  0  0  0
 18 19  1  0  0  0  0
 19 20  1  6  0  0  0
 19 21  1  0  0  0  0
 21 22  1  0  0  0  0
  1 22  1  1  0  0  0
 21 23  1  6  0  0  0
 19 24  1  1  0  0  0
 24 25  2  0  0  0  0
 24 26  1  0  0  0  0
 26 27  1  0  0  0  0
 18 28  1  1  0  0  0
M  END
>  <Name>
Dexamethasone (DHAP)

>  <CAS>
50-02-2

>  <Formula>
C22H29FO5

>  <MolWt>
392.46 

>  <Bioactivity>
Dexamethasone (DHAP) is a potent synthetic member of the glucocorticoid class of steroid drugs, and an interleukin receptor modulator that has anti-inflammatory and immunosuppressant effects

>  <Pathways>
Endocrinology/ Hormones

>  <Target>
Annexin A agonist;NR stimulator;MRP inhibitor;iNOS negative modulator;Glucocorticoid receptor agonist;IL antagonist

>  <Receptor>
Annexin A1;NR;MRP1;iNOS;Glucocorticoid receptor;IL receptor

>  <Reference>
1. Warne JP, et al. Am J Physiol Endocrinol Metab. 2006 Dec;291(6):E1264-73. 

$$$$
T1101
  Mrv1561503291623562D          

 35 36  0  0  1  0            999 V2000
   -0.9310   -0.3625    0.0000 C   0  0  0  0  0  0  0  0  0  0  0  0
   -0.9310    0.4625    0.0000 C   0  0  0  0  0  0  0  0  0  0  0  0
   -0.9310    1.2875    0.0000 O   0  0  0  0  0  0  0  0  0  0  0  0
   -0.2165    0.8750    0.0000 C   0  0  0  0  0  0  0  0  0  0  0  0
   -0.2165    1.7000    0.0000 O   0  0  0  0  0  0  0  0  0  0  0  0
    0.4980    0.4625    0.0000 C   0  0  0  0  0  0  0  0  0  0  0  0
    1.2124    0.8750    0.0000 C   0  0  0  0  0  0  0  0  0  0  0  0
    1.2124    1.7000    0.0000 O   0  0  0  0  0  0  0  0  0  0  0  0
    1.9269    0.4625    0.0000 C   0  0  0  0  0  0  0  0  0  0  0  0
    2.6414    0.8750    0.0000 C   0  0  0  0  0  0  0  0  0  0  0  0
    2.6414    1.7000    0.0000 O   0  0  0  0  0  0  0  0  0  0  0  0
    3.3558    0.4625    0.0000 C   0  0  0  0  0  0  0  0  0  0  0  0
    3.3558   -0.3625    0.0000 C   0  0  0  0  0  0  0  0  0  0  0  0
    2.6414   -0.7750    0.0000 C   0  0  0  0  0  0  0  0  0  0  0  0
    1.9269   -0.3625    0.0000 C   0  0  0  0  0  0  0  0  0  0  0  0
    1.2124   -0.7750    0.0000 C   0  0  0  0  0  0  0  0  0  0  0  0
    0.4980   -0.3625    0.0000 C   0  0  0  0  0  0  0  0  0  0  0  0
   -0.2165   -0.7750    0.0000 C   0  0  0  0  0  0  0  0  0  0  0  0
    2.6414   -1.6000    0.0000 N   0  0  0  0  0  0  0  0  0  0  0  0
    3.3558   -2.0125    0.0000 C   0  0  0  0  0  0  0  0  0  0  0  0
    1.9269   -2.0125    0.0000 C   0  0  0  0  0  0  0  0  0  0  0  0
   -1.6454    0.8750    0.0000 C   0  0  0  0  0  0  0  0  0  0  0  0
   -1.6454    1.7000    0.0000 O   0  0  0  0  0  0  0  0  0  0  0  0
   -2.3599    0.4625    0.0000 C   0  0  0  0  0  0  0  0  0  0  0  0
   -2.3599   -0.3625    0.0000 C   0  0  0  0  0  0  0  0  0  0  0  0
   -3.0744   -0.7750    0.0000 O   0  0  0  0  0  0  0  0  0  0  0  0
   -1.6454   -0.7750    0.0000 C   0  0  0  0  0  0  0  0  0  0  0  0
   -1.6454   -1.6000    0.0000 N   0  0  0  0  0  0  0  0  0  0  0  0
   -0.9310   -2.0125    0.0000 C   0  0  0  0  0  0  0  0  0  0  0  0
   -2.3599   -2.0125    0.0000 C   0  0  0  0  0  0  0  0  0  0  0  0
   -3.0744    0.8750    0.0000 C   0  0  0  0  0  0  0  0  0  0  0  0
   -3.0744    1.7000    0.0000 O   0  0  0  0  0  0  0  0  0  0  0  0
   -3.7889    0.4625    0.0000 N   0  0  0  0  0  0  0  0  0  0  0  0
    6.5380    0.0000    0.0000 H   0  3  0  0  0  0  0  0  0  0  0  0
    5.7130    0.0000    0.0000 Cl  0  5  0  0  0  0  0  0  0  0  0  0
  1  2  1  0  0  0  0
  2  3  1  0  0  0  0
  2  4  1  0  0  0  0
  4  5  2  0  0  0  0
  4  6  1  0  0  0  0
  6  7  2  0  0  0  0
  7  8  1  0  0  0  0
  7  9  1  0  0  0  0
  9 10  2  0  0  0  0
 10 11  1  0  0  0  0
 10 12  1  0  0  0  0
 12 13  2  0  0  0  0
 13 14  1  0  0  0  0
 14 15  2  0  0  0  0
  9 15  1  0  0  0  0
 15 16  1  0  0  0  0
 16 17  1  0  0  0  0
  6 17  1  0  0  0  0
 17 18  1  0  0  0  0
  1 18  1  0  0  0  0
 14 19  1  0  0  0  0
 19 20  1  0  0  0  0
 19 21  1  0  0  0  0
  2 22  1  0  0  0  0
 22 23  2  0  0  0  0
 22 24  1  0  0  0  0
 24 25  1  0  0  0  0
 25 26  2  0  0  0  0
 25 27  1  0  0  0  0
  1 27  1  0  0  0  0
 27 28  1  0  0  0  0
 28 29  1  0  0  0  0
 28 30  1  0  0  0  0
 24 31  2  0  0  0  0
 31 32  1  0  0  0  0
 31 33  1  0  0  0  0
M  CHG  2  34   1  35  -1
M  END
>  <Name>
Minocycline HCl

>  <CAS>
13614-98-7

>  <Formula>
C23H28ClN3O7

>  <MolWt>
493.94 

>  <Bioactivity>
Minocycline HCl is the most lipid soluble and most active tetracycline antibiotic, binds to the 30S ribosomal subunit, preventing the binding of tRNA to the mRNA-ribosome complex and interfering with protein synthesis.

>  <Pathways>
Microbiology & Virology

>  <Target>
Antibiotic

>  <Receptor>
Others

>  <Reference>
1. Brogden RN, et al. Drugs, 1975, 9(4), 251-291.

$$$$
T0152
  Mrv1561503291623562D          

 36 39  0  0  0  0            999 V2000
   -0.0000    0.0000    0.0000 C   0  0  0  0  0  0  0  0  0  0  0  0
   -0.7145   -0.4125    0.0000 C   0  0  0  0  0  0  0  0  0  0  0  0
   -0.7145   -1.2375    0.0000 C   0  0  0  0  0  0  0  0  0  0  0  0
   -0.0000   -1.6500    0.0000 C   0  0  0  0  0  0  0  0  0  0  0  0
    0.7145   -1.2375    0.0000 C   0  0  0  0  0  0  0  0  0  0  0  0
    0.7145   -0.4125    0.0000 C   0  0  0  0  0  0  0  0  0  0  0  0
    1.4289    0.0000    0.0000 C   0  0  0  0  0  0  0  0  0  0  0  0
    2.1434   -0.4125    0.0000 C   0  0  0  0  0  0  0  0  0  0  0  0
    2.1434   -1.2375    0.0000 C   0  0  0  0  0  0  0  0  0  0  0  0
    1.4289   -1.6500    0.0000 N   0  0  0  0  0  0  0  0  0  0  0  0
    2.8579    0.0000    0.0000 C   0  0  0  0  0  0  0  0  0  0  0  0
    3.5724    0.4125    0.0000 N   0  0  0  0  0  0  0  0  0  0  0  0
    1.4289    0.8250    0.0000 N   0  0  0  0  0  0  0  0  0  0  0  0
    2.1434    1.2375    0.0000 C   0  0  0  0  0  0  0  0  0  0  0  0
    2.1434    2.0625    0.0000 C   0  0  0  0  0  0  0  0  0  0  0  0
    2.8579    2.4750    0.0000 C   0  0  0  0  0  0  0  0  0  0  0  0
    3.5724    2.0625    0.0000 C   0  0  0  0  0  0  0  0  0  0  0  0
    3.5724    1.2375    0.0000 C   0  0  0  0  0  0  0  0  0  0  0  0
    2.8579    0.8250    0.0000 C   0  0  0  0  0  0  0  0  0  0  0  0
    4.2868    0.8250    0.0000 O   0  0  0  0  0  0  0  0  0  0  0  0
    5.0013    1.2375    0.0000 C   0  0  0  0  0  0  0  0  0  0  0  0
    4.2868    2.4750    0.0000 Cl  0  0  0  0  0  0  0  0  0  0  0  0
    1.4289    2.4750    0.0000 Cl  0  0  0  0  0  0  0  0  0  0  0  0
   -1.4289   -1.6500    0.0000 O   0  0  0  0  0  0  0  0  0  0  0  0
   -1.4289   -2.4750    0.0000 C   0  0  0  0  0  0  0  0  0  0  0  0
   -2.1434   -2.8875    0.0000 C   0  0  0  0  0  0  0  0  0  0  0  0
   -2.1434   -3.7125    0.0000 C   0  0  0  0  0  0  0  0  0  0  0  0
   -2.8579   -4.1250    0.0000 N   0  0  0  0  0  0  0  0  0  0  0  0
   -2.8579   -4.9500    0.0000 C   0  0  0  0  0  0  0  0  0  0  0  0
   -3.5724   -5.3625    0.0000 C   0  0  0  0  0  0  0  0  0  0  0  0
   -4.2868   -4.9500    0.0000 N   0  0  0  0  0  0  0  0  0  0  0  0
   -4.2868   -4.1250    0.0000 C   0  0  0  0  0  0  0  0  0  0  0  0
   -3.5724   -3.7125    0.0000 C   0  0  0  0  0  0  0  0  0  0  0  0
   -5.0013   -5.3625    0.0000 C   0  0  0  0  0  0  0  0  0  0  0  0
   -1.4289    0.0000    0.0000 O   0  0  0  0  0  0  0  0  0  0  0  0
   -2.1434   -0.4125    0.0000 C   0  0  0  0  0  0  0  0  0  0  0  0
  1  2  2  0  0  0  0
  2  3  1  0  0  0  0
  3  4  2  0  0  0  0
  4  5  1  0  0  0  0
  5  6  2  0  0  0  0
  1  6  1  0  0  0  0
  6  7  1  0  0  0  0
  7  8  2  0  0  0  0
  8  9  1  0  0  0  0
  9 10  2  0  0  0  0
  5 10  1  0  0  0  0
  8 11  1  0  0  0  0
 11 12  3  0  0  0  0
  7 13  1  0  0  0  0
 13 14  1  0  0  0  0
 14 15  2  0  0  0  0
 15 16  1  0  0  0  0
 16 17  2  0  0  0  0
 17 18  1  0  0  0  0
 18 19  2  0  0  0  0
 14 19  1  0  0  0  0
 18 20  1  0  0  0  0
 20 21  1  0  0  0  0
 17 22  1  0  0  0  0
 15 23  1  0  0  0  0
  3 24  1  0  0  0  0
 24 25  1  0  0  0  0
 25 26  1  0  0  0  0
 26 27  1  0  0  0  0
 27 28  1  0  0  0  0
 28 29  1  0  0  0  0
 29 30  1  0  0  0  0
 30 31  1  0  0  0  0
 31 32  1  0  0  0  0
 32 33  1  0  0  0  0
 28 33  1  0  0  0  0
 31 34  1  0  0  0  0
  2 35  1  0  0  0  0
 35 36  1  0  0  0  0
M  END
>  <Name>
Bosutinib (SKI-606)

>  <CAS>
380843-75-4

>  <Formula>
C26H29Cl2N5O3

>  <MolWt>
530.45 

>  <Bioactivity>
Bosutinib is a Bcr-Abl kinase inhibitor for the treatment of Philadelphia chromosome-positive (Ph+) chronic myelogenous leukemia (CML). Compared to other tyrosine kinase inhibitors, it has a more favourable hematologic toxicity profile. FDA approved on September 4, 2012. 

>  <Pathways>
MAPK Signaling; Tyrosine Kinase/Adaptors; Cell cycle/Checkpoint;Neuroscience

>  <Target>
MAPK inhibitor;Src inhibitor;Bcr-Abl inhibitor;CaMK inhibitor;CDK inhibitor

>  <Receptor>
MAPKK2, MAPKKK2;ABL1, Lyn, HCK, Src;Breakpoint cluster region protein(BCR);Bcr-Abl ;CaMK;CDK 2

>  <Reference>
1. Remsing Rix LL, et al. Leukemia. 2009 Mar;23(3):477-85. . 

$$$$
T1524
  Mrv1561503291623562D          

 39 43  0  0  0  0            999 V2000
   -4.8946   -3.8973    0.0000 C   0  0  0  0  0  0  0  0  0  0  0  0
   -5.6091   -4.3098    0.0000 C   0  0  0  0  0  0  0  0  0  0  0  0
   -5.6091   -5.1348    0.0000 N   0  0  0  0  0  0  0  0  0  0  0  0
   -4.9416   -5.6197    0.0000 C   0  0  0  0  0  0  0  0  0  0  0  0
   -5.1966   -6.4044    0.0000 C   0  0  0  0  0  0  0  0  0  0  0  0
   -6.0216   -6.4044    0.0000 N   0  0  0  0  0  0  0  0  0  0  0  0
   -6.2765   -5.6197    0.0000 C   0  0  0  0  0  0  0  0  0  0  0  0
   -4.7116   -7.0718    0.0000 C   0  0  0  0  0  0  0  0  0  0  0  0
   -6.3235   -3.8973    0.0000 C   0  0  0  0  0  0  0  0  0  0  0  0
   -6.3235   -3.0723    0.0000 C   0  0  0  0  0  0  0  0  0  0  0  0
   -7.0380   -2.6598    0.0000 N   0  0  0  0  0  0  0  0  0  0  0  0
   -7.7525   -3.0723    0.0000 C   0  0  0  0  0  0  0  0  0  0  0  0
   -7.7525   -3.8973    0.0000 O   0  0  0  0  0  0  0  0  0  0  0  0
   -8.4669   -2.6598    0.0000 C   0  0  0  0  0  0  0  0  0  0  0  0
   -9.1814   -3.0723    0.0000 C   0  0  0  0  0  0  0  0  0  0  0  0
   -9.8959   -2.6598    0.0000 C   0  0  0  0  0  0  0  0  0  0  0  0
   -9.8959   -1.8348    0.0000 C   0  0  0  0  0  0  0  0  0  0  0  0
   -9.1814   -1.4223    0.0000 C   0  0  0  0  0  0  0  0  0  0  0  0
   -8.4669   -1.8348    0.0000 C   0  0  0  0  0  0  0  0  0  0  0  0
  -10.6104   -1.4223    0.0000 C   0  0  0  0  0  0  0  0  0  0  0  0
  -10.6104   -3.0723    0.0000 N   0  0  0  0  0  0  0  0  0  0  0  0
  -11.3248   -2.6598    0.0000 C   0  0  0  0  0  0  0  0  0  0  0  0
  -12.0393   -3.0723    0.0000 N   0  0  0  0  0  0  0  0  0  0  0  0
  -12.7538   -2.6598    0.0000 C   0  0  0  0  0  0  0  0  0  0  0  0
  -12.7538   -1.8348    0.0000 C   0  0  0  0  0  0  0  0  0  0  0  0
  -12.0393   -1.4223    0.0000 C   0  0  0  0  0  0  0  0  0  0  0  0
  -11.3248   -1.8348    0.0000 N   0  0  0  0  0  0  0  0  0  0  0  0
  -13.4682   -3.0723    0.0000 C   0  0  0  0  0  0  0  0  0  0  0  0
  -13.4682   -3.8973    0.0000 C   0  0  0  0  0  0  0  0  0  0  0  0
  -14.1827   -4.3098    0.0000 N   0  0  0  0  0  0  0  0  0  0  0  0
  -14.8972   -3.8973    0.0000 C   0  0  0  0  0  0  0  0  0  0  0  0
  -14.8972   -3.0723    0.0000 C   0  0  0  0  0  0  0  0  0  0  0  0
  -14.1827   -2.6598    0.0000 C   0  0  0  0  0  0  0  0  0  0  0  0
   -5.6091   -2.6598    0.0000 C   0  0  0  0  0  0  0  0  0  0  0  0
   -4.8946   -3.0723    0.0000 C   0  0  0  0  0  0  0  0  0  0  0  0
   -4.1801   -2.6598    0.0000 C   0  0  0  0  0  0  0  0  0  0  0  0
   -3.4656   -2.2473    0.0000 F   0  0  0  0  0  0  0  0  0  0  0  0
   -3.7676   -3.3743    0.0000 F   0  0  0  0  0  0  0  0  0  0  0  0
   -4.5926   -1.9453    0.0000 F   0  0  0  0  0  0  0  0  0  0  0  0
  1  2  2  0  0  0  0
  2  3  1  0  0  0  0
  3  4  1  0  0  0  0
  4  5  2  0  0  0  0
  5  6  1  0  0  0  0
  6  7  2  0  0  0  0
  3  7  1  0  0  0  0
  5  8  1  0  0  0  0
  2  9  1  0  0  0  0
  9 10  2  0  0  0  0
 10 11  1  0  0  0  0
 11 12  1  0  0  0  0
 12 13  2  0  0  0  0
 12 14  1  0  0  0  0
 14 15  2  0  0  0  0
 15 16  1  0  0  0  0
 16 17  2  0  0  0  0
 17 18  1  0  0  0  0
 18 19  2  0  0  0  0
 14 19  1  0  0  0  0
 17 20  1  0  0  0  0
 16 21  1  0  0  0  0
 21 22  1  0  0  0  0
 22 23  2  0  0  0  0
 23 24  1  0  0  0  0
 24 25  2  0  0  0  0
 25 26  1  0  0  0  0
 26 27  2  0  0  0  0
 22 27  1  0  0  0  0
 24 28  1  0  0  0  0
 28 29  2  0  0  0  0
 29 30  1  0  0  0  0
 30 31  2  0  0  0  0
 31 32  1  0  0  0  0
 32 33  2  0  0  0  0
 28 33  1  0  0  0  0
 10 34  1  0  0  0  0
 34 35  2  0  0  0  0
  1 35  1  0  0  0  0
 35 36  1  0  0  0  0
 36 37  1  0  0  0  0
 36 38  1  0  0  0  0
 36 39  1  0  0  0  0
M  END
>  <Name>
Nilotinib (AMN-107)

>  <CAS>
641571-10-0

>  <Formula>
C28H22F3N7O

>  <MolWt>
529.52 

>  <Bioactivity>
Nilotinib, also known as AMN107, is a tyrosine kinase inhibitor under investigation as a possible treatment for chronic myelogenous leukemia (CML). In June 2006, a Phase I clinical trial found nilotinib has a relatively favorable safety profile and shows activity in cases of CML resistant to treatment with imatinib (Gleevec®), another tyrosine kinase inhibitor currently used as a first-line treatment.  

>  <Pathways>
Tyrosine Kinase/Adaptors

>  <Target>
Bcr-Abl inhibitor;Mast/stem cell GFR Kit agonist

>  <Receptor>
Bcr-Abl ;Mast/stem cell GFR Kit

>  <Reference>
1. Maekawa T, et al. Int J Clin Oncol. 2007 Oct;12(5):327-40.

$$$$
T1654
  Mrv1561503291623562D          

 39 38  0  0  0  0            999 V2000
   -3.5724    0.8745    0.0000 C   0  0  0  0  0  0  0  0  0  0  0  0
   -2.8579    0.4620    0.0000 C   0  0  0  0  0  0  0  0  0  0  0  0
   -2.8579   -0.3630    0.0000 C   0  0  0  0  0  0  0  0  0  0  0  0
   -3.5724   -0.7755    0.0000 C   0  0  0  0  0  0  0  0  0  0  0  0
   -4.2868   -0.3630    0.0000 C   0  0  0  0  0  0  0  0  0  0  0  0
   -4.2868    0.4620    0.0000 C   0  0  0  0  0  0  0  0  0  0  0  0
   -5.0013   -0.7755    0.0000 C   0  0  0  0  0  0  0  0  0  0  0  0
   -5.7158   -0.3630    0.0000 N   0  0  0  0  0  0  0  0  0  0  0  0
   -5.0013   -1.6005    0.0000 N   0  0  0  0  0  0  0  0  0  0  0  0
   -2.1434    0.8745    0.0000 O   0  0  0  0  0  0  0  0  0  0  0  0
   -1.4289    0.4620    0.0000 C   0  0  0  0  0  0  0  0  0  0  0  0
   -0.7145    0.8745    0.0000 C   0  0  0  0  0  0  0  0  0  0  0  0
    0.0000    0.4620    0.0000 C   0  0  0  0  0  0  0  0  0  0  0  0
    0.7145    0.8745    0.0000 C   0  0  0  0  0  0  0  0  0  0  0  0
    1.4289    0.4620    0.0000 C   0  0  0  0  0  0  0  0  0  0  0  0
    2.1434    0.8745    0.0000 O   0  0  0  0  0  0  0  0  0  0  0  0
    2.8579    0.4620    0.0000 C   0  0  0  0  0  0  0  0  0  0  0  0
    3.5724    0.8745    0.0000 C   0  0  0  0  0  0  0  0  0  0  0  0
    4.2868    0.4620    0.0000 C   0  0  0  0  0  0  0  0  0  0  0  0
    4.2868   -0.3630    0.0000 C   0  0  0  0  0  0  0  0  0  0  0  0
    3.5724   -0.7755    0.0000 C   0  0  0  0  0  0  0  0  0  0  0  0
    2.8579   -0.3630    0.0000 C   0  0  0  0  0  0  0  0  0  0  0  0
    5.0013   -0.7755    0.0000 C   0  0  0  0  0  0  0  0  0  0  0  0
    5.7158   -0.3630    0.0000 N   0  0  0  0  0  0  0  0  0  0  0  0
    5.0013   -1.6005    0.0000 N   0  0  0  0  0  0  0  0  0  0  0  0
    8.8390   -0.2041    0.0000 C   0  0  0  0  0  0  0  0  0  0  0  0
    9.6640   -0.2041    0.0000 S   0  0  0  0  0  0  0  0  0  0  0  0
   10.4890   -0.2041    0.0000 O   0  0  0  0  0  0  0  0  0  0  0  0
    9.6640    0.6209    0.0000 O   0  0  0  0  0  0  0  0  0  0  0  0
    9.6640   -1.0291    0.0000 O   0  0  0  0  0  0  0  0  0  0  0  0
    8.4265    0.5103    0.0000 C   0  0  0  0  0  0  0  0  0  0  0  0
    7.6015    0.5103    0.0000 O   0  0  0  0  0  0  0  0  0  0  0  0
   -0.3536   -4.0755    0.0000 C   0  0  0  0  0  0  0  0  0  0  0  0
    0.4714   -4.0755    0.0000 S   0  0  0  0  0  0  0  0  0  0  0  0
    1.2964   -4.0755    0.0000 O   0  0  0  0  0  0  0  0  0  0  0  0
    0.4714   -3.2505    0.0000 O   0  0  0  0  0  0  0  0  0  0  0  0
    0.4714   -4.9005    0.0000 O   0  0  0  0  0  0  0  0  0  0  0  0
   -0.7661   -3.3610    0.0000 C   0  0  0  0  0  0  0  0  0  0  0  0
   -1.5911   -3.3610    0.0000 O   0  0  0  0  0  0  0  0  0  0  0  0
  1  2  2  0  0  0  0
  2  3  1  0  0  0  0
  3  4  2  0  0  0  0
  4  5  1  0  0  0  0
  5  6  2  0  0  0  0
  1  6  1  0  0  0  0
  5  7  1  0  0  0  0
  7  8  1  0  0  0  0
  7  9  2  0  0  0  0
  2 10  1  0  0  0  0
 10 11  1  0  0  0  0
 11 12  1  0  0  0  0
 12 13  1  0  0  0  0
 13 14  1  0  0  0  0
 14 15  1  0  0  0  0
 15 16  1  0  0  0  0
 16 17  1  0  0  0  0
 17 18  2  0  0  0  0
 18 19  1  0  0  0  0
 19 20  2  0  0  0  0
 20 21  1  0  0  0  0
 21 22  2  0  0  0  0
 17 22  1  0  0  0  0
 20 23  1  0  0  0  0
 23 24  1  0  0  0  0
 23 25  2  0  0  0  0
 26 27  1  0  0  0  0
 27 28  1  0  0  0  0
 27 29  2  0  0  0  0
 27 30  2  0  0  0  0
 26 31  1  0  0  0  0
 31 32  1  0  0  0  0
 33 34  1  0  0  0  0
 34 35  1  0  0  0  0
 34 36  2  0  0  0  0
 34 37  2  0  0  0  0
 33 38  1  0  0  0  0
 38 39  1  0  0  0  0
M  END
>  <Name>
Pentamidine isethionate

>  <CAS>
140-64-7

>  <Formula>
C23H36N4O10S2

>  <MolWt>
592.68 

>  <Bioactivity>
Antiprotozoal agent effective in trypanosomiasis, leishmaniasis, and some fungal infections; used in treatment of PNEUMOCYSTIS pneumonia in HIV-infected patients. PENTAMIDINE ISETHIONATE may cause diabetes mellitus, central nervous system damage, and other toxic effects.


>  <Pathways>
Microbiology & Virology  

>  <Target>
Antibiotic

>  <Receptor>
Others

>  <Reference>
1. Goa KL, Campoli-Richards DM. Drugs. 1987 Mar;33(3):242-58.

$$$$
1508-75-4
  Mrv1561503291623562D          

 21 22  0  0  0  0            999 V2000
   -1.4289   -2.4750    0.0000 C   0  0  0  0  0  0  0  0  0  0  0  0
   -0.7145   -2.8875    0.0000 C   0  0  0  0  0  0  0  0  0  0  0  0
   -0.7145   -3.7125    0.0000 C   0  0  0  0  0  0  0  0  0  0  0  0
   -1.4289   -4.1250    0.0000 C   0  0  0  0  0  0  0  0  0  0  0  0
   -2.1434   -3.7125    0.0000 C   0  0  0  0  0  0  0  0  0  0  0  0
   -2.1434   -2.8875    0.0000 N   0  0  0  0  0  0  0  0  0  0  0  0
   -0.0000   -4.1250    0.0000 C   0  0  0  0  0  0  0  0  0  0  0  0
    0.7145   -3.7125    0.0000 N   0  0  0  0  0  0  0  0  0  0  0  0
    0.7145   -2.8875    0.0000 C   0  0  0  0  0  0  0  0  0  0  0  0
   -0.0000   -2.4750    0.0000 C   0  0  0  0  0  0  0  0  0  0  0  0
    1.4289   -4.1250    0.0000 C   0  0  0  0  0  0  0  0  0  0  0  0
    2.1434   -3.7125    0.0000 C   0  0  0  0  0  0  0  0  0  0  0  0
    2.1434   -2.8875    0.0000 C   0  0  0  0  0  0  0  0  0  0  0  0
    2.8579   -2.4750    0.0000 O   0  0  0  0  0  0  0  0  0  0  0  0
    2.8579   -4.1250    0.0000 C   0  0  0  0  0  0  0  0  0  0  0  0
    3.5724   -3.7125    0.0000 C   0  0  0  0  0  0  0  0  0  0  0  0
    4.2868   -4.1250    0.0000 C   0  0  0  0  0  0  0  0  0  0  0  0
    4.2868   -4.9500    0.0000 C   0  0  0  0  0  0  0  0  0  0  0  0
    3.5724   -5.3625    0.0000 C   0  0  0  0  0  0  0  0  0  0  0  0
    2.8579   -4.9500    0.0000 C   0  0  0  0  0  0  0  0  0  0  0  0
    1.4289   -4.9500    0.0000 O   0  0  0  0  0  0  0  0  0  0  0  0
  1  2  2  0  0  0  0
  2  3  1  0  0  0  0
  3  4  2  0  0  0  0
  4  5  1  0  0  0  0
  5  6  2  0  0  0  0
  1  6  1  0  0  0  0
  3  7  1  0  0  0  0
  7  8  1  0  0  0  0
  8  9  1  0  0  0  0
  9 10  1  0  0  0  0
  8 11  1  0  0  0  0
 11 12  1  0  0  0  0
 12 13  1  0  0  0  0
 13 14  1  0  0  0  0
 12 15  1  0  0  0  0
 15 16  2  0  0  0  0
 16 17  1  0  0  0  0
 17 18  2  0  0  0  0
 18 19  1  0  0  0  0
 19 20  2  0  0  0  0
 15 20  1  0  0  0  0
 11 21  2  0  0  0  0
M  END
>  <Name>
Tropicamide

>  <CAS>
1508-75-4

>  <Formula>
C17H20N2O2

>  <MolWt>
284.36 

>  <Bioactivity>
One of the MUSCARINIC ANTAGONISTS with pharmacologic action similar to ATROPINE and used mainly as an ophthalmic parasympatholytic or mydriatic.

>  <Pathways>
Neuroscience

>  <Target>
AChR antagonist

>  <Receptor>
Muscarinic AChR

>  <Reference>
1. Betz AJ, et al. Psychopharmacology (Berl). 2007 Oct;194(3):347-59.

$$$$
28395-03-1
  Mrv1561503291623562D          

 25 26  0  0  0  0            999 V2000
   -2.8579    0.8250    0.0000 C   0  0  0  0  0  0  0  0  0  0  0  0
   -3.5724    1.2375    0.0000 C   0  0  0  0  0  0  0  0  0  0  0  0
   -3.5724    2.0625    0.0000 C   0  0  0  0  0  0  0  0  0  0  0  0
   -4.2868    2.4750    0.0000 O   0  0  0  0  0  0  0  0  0  0  0  0
   -2.8579    2.4750    0.0000 O   0  0  0  0  0  0  0  0  0  0  0  0
   -4.2868    0.8250    0.0000 C   0  0  0  0  0  0  0  0  0  0  0  0
   -4.2868    0.0000    0.0000 C   0  0  0  0  0  0  0  0  0  0  0  0
   -3.5724   -0.4125    0.0000 C   0  0  0  0  0  0  0  0  0  0  0  0
   -2.8579    0.0000    0.0000 C   0  0  0  0  0  0  0  0  0  0  0  0
   -2.1434   -0.4125    0.0000 N   0  0  0  0  0  0  0  0  0  0  0  0
   -1.4289    0.0000    0.0000 C   0  0  0  0  0  0  0  0  0  0  0  0
   -0.7145   -0.4125    0.0000 C   0  0  0  0  0  0  0  0  0  0  0  0
   -0.0000    0.0000    0.0000 C   0  0  0  0  0  0  0  0  0  0  0  0
    0.7145   -0.4125    0.0000 C   0  0  0  0  0  0  0  0  0  0  0  0
   -3.5724   -1.2375    0.0000 O   0  0  0  0  0  0  0  0  0  0  0  0
   -2.8579   -1.6500    0.0000 C   0  0  0  0  0  0  0  0  0  0  0  0
   -2.1434   -1.2375    0.0000 C   0  0  0  0  0  0  0  0  0  0  0  0
   -1.4289   -1.6500    0.0000 C   0  0  0  0  0  0  0  0  0  0  0  0
   -1.4289   -2.4750    0.0000 C   0  0  0  0  0  0  0  0  0  0  0  0
   -2.1434   -2.8875    0.0000 C   0  0  0  0  0  0  0  0  0  0  0  0
   -2.8579   -2.4750    0.0000 C   0  0  0  0  0  0  0  0  0  0  0  0
   -5.0013   -0.4125    0.0000 S   0  0  0  0  0  0  0  0  0  0  0  0
   -4.5888   -1.1270    0.0000 N   0  0  0  0  0  0  0  0  0  0  0  0
   -5.4138    0.3020    0.0000 O   0  0  0  0  0  0  0  0  0  0  0  0
   -5.7158   -0.8250    0.0000 O   0  0  0  0  0  0  0  0  0  0  0  0
  1  2  2  0  0  0  0
  2  3  1  0  0  0  0
  3  4  1  0  0  0  0
  3  5  2  0  0  0  0
  2  6  1  0  0  0  0
  6  7  2  0  0  0  0
  7  8  1  0  0  0  0
  8  9  2  0  0  0  0
  1  9  1  0  0  0  0
  9 10  1  0  0  0  0
 10 11  1  0  0  0  0
 11 12  1  0  0  0  0
 12 13  1  0  0  0  0
 13 14  1  0  0  0  0
  8 15  1  0  0  0  0
 15 16  1  0  0  0  0
 16 17  2  0  0  0  0
 17 18  1  0  0  0  0
 18 19  2  0  0  0  0
 19 20  1  0  0  0  0
 20 21  2  0  0  0  0
 16 21  1  0  0  0  0
  7 22  1  0  0  0  0
 22 23  1  0  0  0  0
 22 24  2  0  0  0  0
 22 25  2  0  0  0  0
M  END
>  <Name>
Bumetanide

>  <CAS>
28395-03-1

>  <Formula>
C17H20N2O5S

>  <MolWt>
364.41 

>  <Bioactivity>
Bumetanide is a Loop Diuretic. The physiologic effect of bumetanide is by means of Increased Diuresis at Loop of Henle.

>  <Pathways>
Membrane Transporter/Ion Channel

>  <Target>
NKCC cotransporter inhibitor

>  <Receptor>
NKCC cotransportor

>  <Reference>
1. Thakker RV. Adv Nephrol Necker Hosp. 1999;29:289-98.

$$$$
T0094
  Mrv1561503291623562D          

 31 35  0  0  1  0            999 V2000
    3.6631    0.0204    0.0000 C   0  0  1  0  0  0  0  0  0  0  0  0
    3.9944    0.7759    0.0000 C   0  0  1  0  0  0  0  0  0  0  0  0
    4.8154    0.6943    0.0000 C   0  0  2  0  0  0  0  0  0  0  0  0
    5.5275    1.1108    0.0000 O   0  0  0  0  0  0  0  0  0  0  0  0
    6.1437    0.5623    0.0000 C   0  0  1  0  0  0  0  0  0  0  0  0
    5.8124   -0.1933    0.0000 O   0  0  0  0  0  0  0  0  0  0  0  0
    4.9914   -0.1117    0.0000 C   0  0  2  0  0  0  0  0  0  0  0  0
    4.2793   -0.5282    0.0000 C   0  0  0  0  0  0  0  0  0  0  0  0
    6.9497    0.7383    0.0000 C   0  0  0  0  0  0  0  0  0  0  0  0
    7.5052    0.1284    0.0000 C   0  0  0  0  0  0  0  0  0  0  0  0
    8.3111    0.3044    0.0000 C   0  0  0  0  0  0  0  0  0  0  0  0
    4.6393    1.5003    0.0000 C   0  0  0  0  0  0  0  0  0  0  0  0
    3.9691    1.9815    0.0000 O   0  0  0  0  0  0  0  0  0  0  0  0
    5.2493    2.0558    0.0000 C   0  0  0  0  0  0  0  0  0  0  0  0
    6.0353    1.8053    0.0000 O   0  0  0  0  0  0  0  0  0  0  0  0
    3.5057    1.4406    0.0000 C   0  0  0  0  0  0  0  0  0  0  0  0
    2.6857    1.3498    0.0000 C   0  0  2  0  0  0  0  0  0  0  0  0
    2.1971    2.0145    0.0000 O   0  0  0  0  0  0  0  0  0  0  0  0
    2.3544    0.5942    0.0000 C   0  0  1  0  0  0  0  0  0  0  0  0
    2.8431   -0.0705    0.0000 C   0  0  1  0  0  0  0  0  0  0  0  0
    2.5118   -0.8260    0.0000 C   0  0  0  0  0  0  0  0  0  0  0  0
    1.6918   -0.9169    0.0000 C   0  0  0  0  0  0  0  0  0  0  0  0
    1.2031   -0.2522    0.0000 C   0  0  0  0  0  0  0  0  0  0  0  0
    0.3832   -0.3431    0.0000 C   0  0  0  0  0  0  0  0  0  0  0  0
   -0.1055    0.3216    0.0000 C   0  0  0  0  0  0  0  0  0  0  0  0
   -0.9255    0.2308    0.0000 O   0  0  0  0  0  0  0  0  0  0  0  0
    0.2258    1.0772    0.0000 C   0  0  0  0  0  0  0  0  0  0  0  0
    1.0458    1.1681    0.0000 C   0  0  0  0  0  0  0  0  0  0  0  0
    1.5345    0.5034    0.0000 C   0  0  2  0  0  0  0  0  0  0  0  0
    1.8658    1.2589    0.0000 C   0  0  0  0  0  0  0  0  0  0  0  0
    4.1614    1.5839    0.0000 C   0  0  0  0  0  0  0  0  0  0  0  0
  1  2  1  0  0  0  0
  2  3  1  0  0  0  0
  3  4  1  0  0  0  0
  4  5  1  0  0  0  0
  5  6  1  0  0  0  0
  7  6  1  6  0  0  0
  3  7  1  0  0  0  0
  7  8  1  0  0  0  0
  1  8  1  1  0  0  0
  5  9  1  6  0  0  0
  9 10  1  0  0  0  0
 10 11  1  0  0  0  0
  3 12  1  1  0  0  0
 12 13  2  0  0  0  0
 12 14  1  0  0  0  0
 14 15  1  0  0  0  0
  2 16  1  0  0  0  0
 16 17  1  0  0  0  0
 17 18  1  1  0  0  0
 17 19  1  0  0  0  0
 19 20  1  0  0  0  0
  1 20  1  0  0  0  0
 20 21  1  6  0  0  0
 21 22  1  0  0  0  0
 22 23  1  0  0  0  0
 23 24  2  0  0  0  0
 24 25  1  0  0  0  0
 25 26  2  0  0  0  0
 25 27  1  0  0  0  0
 27 28  2  0  0  0  0
 28 29  1  0  0  0  0
 19 29  1  1  0  0  0
 23 29  1  0  0  0  0
 29 30  1  1  0  0  0
  2 31  1  1  0  0  0
M  END
>  <Name>
Budesonide

>  <CAS>
51333-22-3

>  <Formula>
C25H34O6

>  <MolWt>
430.54 

>  <Bioactivity>
Budesonide is an anti-inflammatory corticosteroid.
Budesonide has shown the potent glucocorticoid activity and little mineralocorticoid activity. In addition, Budesonide has been reported to have a wide range of inhibitory activities against multiple cells types and mediators involved in allergic and nonallergic-mediated inflammatory. Besides, the anti-inflammatory action of budesonide has been revealed to contribute to the efficacy in asthma. 

>  <Pathways>
Endocrinology/ Hormones

>  <Target>
Glucocorticoid Receptor antagonist

>  <Receptor>
Glucocorticoid receptor

>  <Reference>
1. Henriksson G, et al. Am J Rhinol. 2001 Jan-Feb;15(1):1-8. 

$$$$
50-28-2
  Mrv1561503291623562D          

 20 23  0  0  1  0            999 V2000
    0.7475   -2.9779    0.0000 C   0  0  1  0  0  0  0  0  0  0  0  0
    1.5596   -2.8327    0.0000 C   0  0  1  0  0  0  0  0  0  0  0  0
    2.0914   -3.4634    0.0000 C   0  0  1  0  0  0  0  0  0  0  0  0
    2.9035   -3.3182    0.0000 C   0  0  0  0  0  0  0  0  0  0  0  0
    3.1838   -2.5422    0.0000 C   0  0  0  0  0  0  0  0  0  0  0  0
    3.9960   -2.3970    0.0000 C   0  0  0  0  0  0  0  0  0  0  0  0
    4.5278   -3.0277    0.0000 C   0  0  0  0  0  0  0  0  0  0  0  0
    5.3399   -2.8825    0.0000 O   0  0  0  0  0  0  0  0  0  0  0  0
    4.2475   -3.8037    0.0000 C   0  0  0  0  0  0  0  0  0  0  0  0
    3.4354   -3.9489    0.0000 C   0  0  0  0  0  0  0  0  0  0  0  0
    2.6520   -1.9115    0.0000 C   0  0  0  0  0  0  0  0  0  0  0  0
    1.8399   -2.0567    0.0000 C   0  0  0  0  0  0  0  0  0  0  0  0
    1.8111   -4.2393    0.0000 C   0  0  0  0  0  0  0  0  0  0  0  0
    0.9990   -4.3845    0.0000 C   0  0  0  0  0  0  0  0  0  0  0  0
    0.4672   -3.7538    0.0000 C   0  0  2  0  0  0  0  0  0  0  0  0
   -0.3574   -3.7270    0.0000 C   0  0  1  0  0  0  0  0  0  0  0  0
   -0.8637   -4.3783    0.0000 O   0  0  0  0  0  0  0  0  0  0  0  0
   -0.5867   -2.9345    0.0000 C   0  0  0  0  0  0  0  0  0  0  0  0
    0.0962   -2.4715    0.0000 C   0  0  0  0  0  0  0  0  0  0  0  0
    0.1073   -4.4962    0.0000 C   0  0  0  0  0  0  0  0  0  0  0  0
  1  2  1  0  0  0  0
  2  3  1  0  0  0  0
  3  4  1  0  0  0  0
  4  5  2  0  0  0  0
  5  6  1  0  0  0  0
  6  7  2  0  0  0  0
  7  8  1  0  0  0  0
  7  9  1  0  0  0  0
  9 10  2  0  0  0  0
  4 10  1  0  0  0  0
  5 11  1  0  0  0  0
 11 12  1  0  0  0  0
  2 12  1  6  0  0  0
  3 13  1  1  0  0  0
 13 14  1  0  0  0  0
 14 15  1  0  0  0  0
  1 15  1  0  0  0  0
 15 16  1  0  0  0  0
 16 17  1  1  0  0  0
 16 18  1  0  0  0  0
 18 19  1  0  0  0  0
  1 19  1  1  0  0  0
 15 20  1  1  0  0  0
M  END
>  <Name>
Estradiol

>  <CAS>
50-28-2

>  <Formula>
C18H24O2

>  <MolWt>
272.38 

>  <Bioactivity>
Estradiol is a synthetic ester used to treat menopausal symptoms and hormone deficiencies.

>  <Pathways>
Endocrinology/ Hormones

>  <Target>
Androgen Receptor agonist; Estrogen receptor agonist

>  <Receptor>
Androgen Receptor ;Estrogen receptor

>  <Reference>
1. Takabe K, et al. J Biol Chem, 2010, 285(14), 10477-10486.

$$$$
T0033
  Mrv1561503291623562D          

 27 26  0  0  0  0            999 V2000
    5.9961    4.2868    0.0000 C   0  0  0  0  0  0  0  0  0  0  0  0
    5.2816    4.6993    0.0000 O   0  0  0  0  0  0  0  0  0  0  0  0
    4.5671    4.2868    0.0000 P   0  0  0  0  0  0  0  0  0  0  0  0
    3.8526    3.8743    0.0000 O   0  0  0  0  0  0  0  0  0  0  0  0
    3.1382    4.2868    0.0000 C   0  0  0  0  0  0  0  0  0  0  0  0
    2.4237    3.8743    0.0000 C   0  0  0  0  0  0  0  0  0  0  0  0
    1.7092    4.2868    0.0000 N   0  3  0  0  0  0  0  0  0  0  0  0
    0.9948    4.6993    0.0000 C   0  0  0  0  0  0  0  0  0  0  0  0
    1.2967    3.5724    0.0000 C   0  0  0  0  0  0  0  0  0  0  0  0
    2.1217    5.0013    0.0000 C   0  0  0  0  0  0  0  0  0  0  0  0
    4.9796    3.5724    0.0000 O   0  0  0  0  0  0  0  0  0  0  0  0
    4.1546    5.0013    0.0000 O   0  5  0  0  0  0  0  0  0  0  0  0
    6.7105    4.6993    0.0000 C   0  0  0  0  0  0  0  0  0  0  0  0
    7.4250    4.2868    0.0000 C   0  0  0  0  0  0  0  0  0  0  0  0
    8.1395    4.6993    0.0000 C   0  0  0  0  0  0  0  0  0  0  0  0
    8.8539    4.2868    0.0000 C   0  0  0  0  0  0  0  0  0  0  0  0
    9.5684    4.6993    0.0000 C   0  0  0  0  0  0  0  0  0  0  0  0
   10.2829    4.2868    0.0000 C   0  0  0  0  0  0  0  0  0  0  0  0
   10.9974    4.6993    0.0000 C   0  0  0  0  0  0  0  0  0  0  0  0
   11.7118    4.2868    0.0000 C   0  0  0  0  0  0  0  0  0  0  0  0
   12.4263    4.6993    0.0000 C   0  0  0  0  0  0  0  0  0  0  0  0
   13.1408    4.2868    0.0000 C   0  0  0  0  0  0  0  0  0  0  0  0
   13.8552    4.6993    0.0000 C   0  0  0  0  0  0  0  0  0  0  0  0
   14.5697    4.2868    0.0000 C   0  0  0  0  0  0  0  0  0  0  0  0
   15.2842    4.6993    0.0000 C   0  0  0  0  0  0  0  0  0  0  0  0
   15.9987    4.2868    0.0000 C   0  0  0  0  0  0  0  0  0  0  0  0
   16.7131    4.6993    0.0000 C   0  0  0  0  0  0  0  0  0  0  0  0
  1  2  1  0  0  0  0
  2  3  1  0  0  0  0
  3  4  1  0  0  0  0
  4  5  1  0  0  0  0
  5  6  1  0  0  0  0
  6  7  1  0  0  0  0
  7  8  1  0  0  0  0
  7  9  1  0  0  0  0
  7 10  1  0  0  0  0
  3 11  2  0  0  0  0
  3 12  1  0  0  0  0
  1 13  1  0  0  0  0
 13 14  1  0  0  0  0
 14 15  1  0  0  0  0
 15 16  1  0  0  0  0
 16 17  1  0  0  0  0
 17 18  1  0  0  0  0
 18 19  1  0  0  0  0
 19 20  1  0  0  0  0
 20 21  1  0  0  0  0
 21 22  1  0  0  0  0
 22 23  1  0  0  0  0
 23 24  1  0  0  0  0
 24 25  1  0  0  0  0
 25 26  1  0  0  0  0
 26 27  1  0  0  0  0
M  CHG  2   7   1  12  -1
M  END
>  <Name>
Miltefosine

>  <CAS>
58066-85-6

>  <Formula>
C21H46NO4P.xH2O

>  <MolWt>
407.58 

>  <Bioactivity>
Miltefosine is used for the treatment of visceral and cutaneous leishmaniasis, and is undergoing clinical trials for this use in several other countries. Several medical agents have some efficacy against visceral or cutaneous leishmaniasis, however a 2005 survey concluded that miltefosine is the only effective oral treatment for both forms of leishmaniasis.

>  <Pathways>
PI3K/Akt/mTOR Signaling

>  <Target>
Akt inhibitor; PI3K inhibitor; PKC inhibitor

>  <Receptor>
Akt, PI3K, PKC

>  <Reference>
1. Uberall F, et al. Cancer Res, 1991, 51(3), 807-812.

$$$$
51-45-6
  Mrv1561503291623562D          

  8  8  0  0  0  0            999 V2000
   -0.0997    0.6294    0.0000 C   0  0  0  0  0  0  0  0  0  0  0  0
    0.5678    1.1143    0.0000 C   0  0  0  0  0  0  0  0  0  0  0  0
    0.5678    1.9393    0.0000 C   0  0  0  0  0  0  0  0  0  0  0  0
   -0.1467    2.3518    0.0000 C   0  0  0  0  0  0  0  0  0  0  0  0
   -0.1467    3.1768    0.0000 N   0  0  0  0  0  0  0  0  0  0  0  0
    1.2352    0.6294    0.0000 N   0  0  0  0  0  0  0  0  0  0  0  0
    0.9803   -0.1553    0.0000 C   0  0  0  0  0  0  0  0  0  0  0  0
    0.1553   -0.1553    0.0000 N   0  0  0  0  0  0  0  0  0  0  0  0
  1  2  2  0  0  0  0
  2  3  1  0  0  0  0
  3  4  1  0  0  0  0
  4  5  1  0  0  0  0
  2  6  1  0  0  0  0
  6  7  1  0  0  0  0
  7  8  2  0  0  0  0
  1  8  1  0  0  0  0
M  END
>  <Name>
Histamine

>  <CAS>
51-45-6

>  <Formula>
C5H11Cl2N3

>  <MolWt>
111.15 

>  <Bioactivity>
An amine derived by enzymatic decarboxylation of HISTIDINE. It is a powerful stimulant of gastric secretion, a constrictor of bronchial smooth muscle, a vasodilator, and also a centrally acting neurotransmitter. 

>  <Pathways>
Neuroscience

>  <Target>
Histamine Receptor antagonist

>  <Receptor>
Histamine receptor

>  <Reference>
1. Hardie RC. Nature. 1989 Jun 29;339(6227):704-6.

$$$$
T0186
  Mrv1561503291623562D          

 61 63  0  0  1  0            999 V2000
    1.3218    1.8260    0.0000 C   0  0  2  0  0  0  0  0  0  0  0  0
    2.0802    1.5014    0.0000 C   0  0  1  0  0  0  0  0  0  0  0  0
    1.5704    0.8528    0.0000 O   0  0  0  0  0  0  0  0  0  0  0  0
    1.8771    0.0870    0.0000 C   0  0  0  0  0  0  0  0  0  0  0  0
    2.6937   -0.0303    0.0000 O   0  0  0  0  0  0  0  0  0  0  0  0
    1.3672   -0.5616    0.0000 C   0  0  0  0  0  0  0  0  0  0  0  0
    2.7406    1.9959    0.0000 C   0  0  2  0  0  0  0  0  0  0  0  0
    3.2351    1.3356    0.0000 O   0  0  0  0  0  0  0  0  0  0  0  0
    2.5747    0.8411    0.0000 C   0  0  0  0  0  0  0  0  0  0  0  0
    2.6425    2.8151    0.0000 C   0  0  0  0  0  0  0  0  0  0  0  0
    1.8841    3.1397    0.0000 C   0  0  2  0  0  0  0  0  0  0  0  0
    1.7860    3.9589    0.0000 O   0  0  0  0  0  0  0  0  0  0  0  0
    1.2237    2.6452    0.0000 C   0  0  1  0  0  0  0  0  0  0  0  0
    0.5414    3.1564    0.0000 C   0  0  0  0  0  0  0  0  0  0  0  0
    0.7282    3.9600    0.0000 O   0  0  0  0  0  0  0  0  0  0  0  0
   -0.2997    2.9981    0.0000 C   0  0  2  0  0  0  0  0  0  0  0  0
   -0.7214    3.7072    0.0000 O   0  0  0  0  0  0  0  0  0  0  0  0
   -0.8512    2.3213    0.0000 C   0  0  0  0  0  0  0  0  0  0  0  0
   -1.5779    1.8497    0.0000 C   0  0  0  0  0  0  0  0  0  0  0  0
   -1.6026    1.0047    0.0000 C   0  0  1  0  0  0  0  0  0  0  0  0
   -2.3142    0.5872    0.0000 O   0  0  0  0  0  0  0  0  0  0  0  0
   -2.3085   -0.2377    0.0000 C   0  0  0  0  0  0  0  0  0  0  0  0
   -3.0201   -0.6552    0.0000 O   0  0  0  0  0  0  0  0  0  0  0  0
   -1.5912   -0.6453    0.0000 C   0  0  2  0  0  0  0  0  0  0  0  0
   -0.8796   -0.2279    0.0000 O   0  0  0  0  0  0  0  0  0  0  0  0
   -1.5855   -1.4703    0.0000 C   0  0  1  0  0  0  0  0  0  0  0  0
   -0.8682   -1.8778    0.0000 N   0  0  0  0  0  0  0  0  0  0  0  0
   -0.8625   -2.7028    0.0000 C   0  0  0  0  0  0  0  0  0  0  0  0
   -0.1452   -3.1104    0.0000 O   0  0  0  0  0  0  0  0  0  0  0  0
   -0.1395   -3.9353    0.0000 C   0  0  0  0  0  0  0  0  0  0  0  0
   -0.1338   -4.7603    0.0000 C   0  0  0  0  0  0  0  0  0  0  0  0
    0.6855   -3.9296    0.0000 C   0  0  0  0  0  0  0  0  0  0  0  0
   -0.9644   -3.9410    0.0000 C   0  0  0  0  0  0  0  0  0  0  0  0
   -1.5741   -3.1202    0.0000 O   0  0  0  0  0  0  0  0  0  0  0  0
   -2.2971   -1.8877    0.0000 C   0  0  0  0  0  0  0  0  0  0  0  0
   -2.2914   -2.7127    0.0000 C   0  0  0  0  0  0  0  0  0  0  0  0
   -3.0030   -3.1301    0.0000 C   0  0  0  0  0  0  0  0  0  0  0  0
   -3.7203   -2.7226    0.0000 C   0  0  0  0  0  0  0  0  0  0  0  0
   -3.7260   -1.8976    0.0000 C   0  0  0  0  0  0  0  0  0  0  0  0
   -3.0144   -1.4802    0.0000 C   0  0  0  0  0  0  0  0  0  0  0  0
   -0.8530    0.6139    0.0000 C   0  0  0  0  0  0  0  0  0  0  0  0
   -0.0867    1.0180    0.0000 C   0  0  1  0  0  0  0  0  0  0  0  0
    0.1804    0.2375    0.0000 O   0  0  0  0  0  0  0  0  0  0  0  0
    0.7732    1.1692    0.0000 C   0  0  1  0  0  0  0  0  0  0  0  0
    1.1864    0.4551    0.0000 O   0  0  0  0  0  0  0  0  0  0  0  0
    0.7745   -0.2598    0.0000 C   0  0  0  0  0  0  0  0  0  0  0  0
   -0.0505   -0.2605    0.0000 O   0  0  0  0  0  0  0  0  0  0  0  0
    1.1876   -0.9739    0.0000 C   0  0  0  0  0  0  0  0  0  0  0  0
    2.0126   -0.9731    0.0000 C   0  0  0  0  0  0  0  0  0  0  0  0
    2.4258   -1.6872    0.0000 C   0  0  0  0  0  0  0  0  0  0  0  0
    2.0139   -2.4021    0.0000 C   0  0  0  0  0  0  0  0  0  0  0  0
    1.1889   -2.4028    0.0000 C   0  0  0  0  0  0  0  0  0  0  0  0
    0.7758   -1.6887    0.0000 C   0  0  0  0  0  0  0  0  0  0  0  0
   -0.4114    1.7034    0.0000 C   0  0  0  0  0  0  0  0  0  0  0  0
    0.4051    1.8214    0.0000 C   0  0  0  0  0  0  0  0  0  0  0  0
    0.0900    2.3586    0.0000 C   0  0  0  0  0  0  0  0  0  0  0  0
   -2.2971    2.2539    0.0000 C   0  0  0  0  0  0  0  0  0  0  0  0
    1.2238    3.4702    0.0000 C   0  0  0  0  0  0  0  0  0  0  0  0
    5.5923    0.0000    0.0000 O   0  0  0  0  0  0  0  0  0  0  0  0
    0.0000   -6.4103    0.0000 O   0  0  0  0  0  0  0  0  0  0  0  0
    2.3571   -6.4103    0.0000 O   0  0  0  0  0  0  0  0  0  0  0  0
  1  2  1  0  0  0  0
  2  3  1  6  0  0  0
  3  4  1  0  0  0  0
  4  5  2  0  0  0  0
  4  6  1  0  0  0  0
  2  7  1  0  0  0  0
  7  8  1  1  0  0  0
  8  9  1  0  0  0  0
  2  9  1  0  0  0  0
  7 10  1  0  0  0  0
 10 11  1  0  0  0  0
 11 12  1  1  0  0  0
 11 13  1  0  0  0  0
  1 13  1  0  0  0  0
 13 14  1  0  0  0  0
 14 15  2  0  0  0  0
 14 16  1  0  0  0  0
 16 17  1  1  0  0  0
 16 18  1  0  0  0  0
 18 19  2  0  0  0  0
 19 20  1  0  0  0  0
 20 21  1  6  0  0  0
 21 22  1  0  0  0  0
 22 23  2  0  0  0  0
 22 24  1  0  0  0  0
 24 25  1  6  0  0  0
 24 26  1  0  0  0  0
 26 27  1  1  0  0  0
 27 28  1  0  0  0  0
 28 29  1  0  0  0  0
 29 30  1  0  0  0  0
 30 31  1  0  0  0  0
 30 32  1  0  0  0  0
 30 33  1  0  0  0  0
 28 34  2  0  0  0  0
 26 35  1  0  0  0  0
 35 36  2  0  0  0  0
 36 37  1  0  0  0  0
 37 38  2  0  0  0  0
 38 39  1  0  0  0  0
 39 40  2  0  0  0  0
 35 40  1  0  0  0  0
 20 41  1  0  0  0  0
 41 42  1  0  0  0  0
 42 43  1  1  0  0  0
 42 44  1  0  0  0  0
  1 44  1  1  0  0  0
 44 45  1  6  0  0  0
 45 46  1  0  0  0  0
 46 47  2  0  0  0  0
 46 48  1  0  0  0  0
 48 49  2  0  0  0  0
 49 50  1  0  0  0  0
 50 51  2  0  0  0  0
 51 52  1  0  0  0  0
 52 53  2  0  0  0  0
 48 53  1  0  0  0  0
 42 54  1  0  0  0  0
 18 54  1  0  0  0  0
 54 55  1  0  0  0  0
 54 56  1  0  0  0  0
 19 57  1  0  0  0  0
 13 58  1  1  0  0  0
M  END
>  <Name>
Docetaxel trihydrate

>  <CAS>
148408-66-6

>  <Formula>
C43H59NO17

>  <MolWt>
861.95 

>  <Bioactivity>
Docetaxel, an analog of taxol, is an inhibitor of depolymerisation of microtubules by binding to stabilized microtubules.

>  <Pathways>
Apoptosis;Cell Cycle/Checkpoint

>  <Target>
Bcl-2 inhibitor; Microtubule Associated inhibitor

>  <Receptor>
Bcl-2; Tubulin beta-1 chain

>  <Reference>
1. Matesanz R, et al. Chem Biol. 2008 Jun;15(6):573-85.

$$$$
20830-75-5
  Mrv1561503291623562D          

 55 62  0  0  1  0            999 V2000
    3.6826    0.6076    0.0000 C   0  0  2  0  0  0  0  0  0  0  0  0
    3.9629   -0.1684    0.0000 C   0  0  1  0  0  0  0  0  0  0  0  0
    4.7875   -0.1416    0.0000 C   0  0  1  0  0  0  0  0  0  0  0  0
    5.2939   -0.7929    0.0000 C   0  0  0  0  0  0  0  0  0  0  0  0
    6.1184   -0.7661    0.0000 C   0  0  0  0  0  0  0  0  0  0  0  0
    6.3987   -1.5420    0.0000 C   0  0  0  0  0  0  0  0  0  0  0  0
    7.1912   -1.7713    0.0000 O   0  0  0  0  0  0  0  0  0  0  0  0
    5.7474   -2.0484    0.0000 O   0  0  0  0  0  0  0  0  0  0  0  0
    5.0646   -1.5854    0.0000 C   0  0  0  0  0  0  0  0  0  0  0  0
    5.0168    0.6509    0.0000 C   0  0  0  0  0  0  0  0  0  0  0  0
    4.3340    1.1139    0.0000 C   0  0  0  0  0  0  0  0  0  0  0  0
    3.4311   -0.7991    0.0000 C   0  0  1  0  0  0  0  0  0  0  0  0
    2.6190   -0.6539    0.0000 C   0  0  0  0  0  0  0  0  0  0  0  0
    2.3387    0.1221    0.0000 C   0  0  1  0  0  0  0  0  0  0  0  0
    2.8705    0.7528    0.0000 C   0  0  1  0  0  0  0  0  0  0  0  0
    2.5902    1.5287    0.0000 C   0  0  0  0  0  0  0  0  0  0  0  0
    1.7781    1.6739    0.0000 C   0  0  0  0  0  0  0  0  0  0  0  0
    1.2463    1.0432    0.0000 C   0  0  1  0  0  0  0  0  0  0  0  0
    1.5266    0.2673    0.0000 C   0  0  2  0  0  0  0  0  0  0  0  0
    0.9948   -0.3634    0.0000 C   0  0  0  0  0  0  0  0  0  0  0  0
    0.1827   -0.2182    0.0000 C   0  0  0  0  0  0  0  0  0  0  0  0
   -0.0976    0.5577    0.0000 C   0  0  1  0  0  0  0  0  0  0  0  0
    0.4342    1.1884    0.0000 C   0  0  0  0  0  0  0  0  0  0  0  0
   -0.9098    0.7029    0.0000 O   0  0  0  0  0  0  0  0  0  0  0  0
   -1.1901    1.4789    0.0000 C   0  0  1  0  0  0  0  0  0  0  0  0
   -2.0022    1.6241    0.0000 C   0  0  0  0  0  0  0  0  0  0  0  0
   -2.2825    2.4000    0.0000 C   0  0  1  0  0  0  0  0  0  0  0  0
   -1.7507    3.0307    0.0000 C   0  0  2  0  0  0  0  0  0  0  0  0
   -2.0310    3.8066    0.0000 O   0  0  0  0  0  0  0  0  0  0  0  0
   -1.4991    4.4373    0.0000 C   0  0  1  0  0  0  0  0  0  0  0  0
   -1.7794    5.2133    0.0000 C   0  0  0  0  0  0  0  0  0  0  0  0
   -1.2476    5.8440    0.0000 C   0  0  1  0  0  0  0  0  0  0  0  0
   -0.4355    5.6987    0.0000 C   0  0  2  0  0  0  0  0  0  0  0  0
    0.0963    6.3295    0.0000 O   0  0  0  0  0  0  0  0  0  0  0  0
    0.9084    6.1842    0.0000 C   0  0  1  0  0  0  0  0  0  0  0  0
    1.4403    6.8149    0.0000 C   0  0  0  0  0  0  0  0  0  0  0  0
    2.2524    6.6697    0.0000 C   0  0  1  0  0  0  0  0  0  0  0  0
    2.5327    5.8938    0.0000 C   0  0  2  0  0  0  0  0  0  0  0  0
    3.3448    5.7486    0.0000 O   0  0  0  0  0  0  0  0  0  0  0  0
    2.0009    5.2631    0.0000 C   0  0  2  0  0  0  0  0  0  0  0  0
    1.1887    5.4083    0.0000 O   0  0  0  0  0  0  0  0  0  0  0  0
    2.2812    4.4872    0.0000 C   0  0  0  0  0  0  0  0  0  0  0  0
    2.7842    7.3004    0.0000 O   0  0  0  0  0  0  0  0  0  0  0  0
   -0.1552    4.9228    0.0000 C   0  0  2  0  0  0  0  0  0  0  0  0
   -0.6870    4.2921    0.0000 O   0  0  0  0  0  0  0  0  0  0  0  0
    0.6569    4.7776    0.0000 C   0  0  0  0  0  0  0  0  0  0  0  0
   -1.5279    6.6199    0.0000 O   0  0  0  0  0  0  0  0  0  0  0  0
   -0.9385    2.8855    0.0000 C   0  0  2  0  0  0  0  0  0  0  0  0
   -0.6582    2.1096    0.0000 O   0  0  0  0  0  0  0  0  0  0  0  0
   -0.4067    3.5162    0.0000 C   0  0  0  0  0  0  0  0  0  0  0  0
   -3.0946    2.5452    0.0000 O   0  0  0  0  0  0  0  0  0  0  0  0
    1.8069   -0.5086    0.0000 C   0  0  0  0  0  0  0  0  0  0  0  0
    3.7114   -1.5750    0.0000 O   0  0  0  0  0  0  0  0  0  0  0  0
    4.3228   -0.9107    0.0000 C   0  0  0  0  0  0  0  0  0  0  0  0
    3.4850    1.4085    0.0000 O   0  0  0  0  0  0  0  0  0  0  0  0
  1  2  1  0  0  0  0
  2  3  1  0  0  0  0
  3  4  1  6  0  0  0
  4  5  2  0  0  0  0
  5  6  1  0  0  0  0
  6  7  2  0  0  0  0
  6  8  1  0  0  0  0
  8  9  1  0  0  0  0
  4  9  1  0  0  0  0
  3 10  1  0  0  0  0
 10 11  1  0  0  0  0
  1 11  1  0  0  0  0
  2 12  1  0  0  0  0
 12 13  1  0  0  0  0
 14 13  1  6  0  0  0
 14 15  1  0  0  0  0
  1 15  1  0  0  0  0
 15 16  1  1  0  0  0
 16 17  1  0  0  0  0
 17 18  1  0  0  0  0
 18 19  1  0  0  0  0
 14 19  1  0  0  0  0
 19 20  1  0  0  0  0
 20 21  1  0  0  0  0
 21 22  1  0  0  0  0
 22 23  1  0  0  0  0
 18 23  1  1  0  0  0
 22 24  1  6  0  0  0
 25 24  1  1  0  0  0
 25 26  1  0  0  0  0
 26 27  1  0  0  0  0
 27 28  1  0  0  0  0
 28 29  1  6  0  0  0
 30 29  1  1  0  0  0
 30 31  1  0  0  0  0
 31 32  1  0  0  0  0
 32 33  1  0  0  0  0
 33 34  1  6  0  0  0
 35 34  1  1  0  0  0
 35 36  1  0  0  0  0
 36 37  1  0  0  0  0
 37 38  1  0  0  0  0
 38 39  1  6  0  0  0
 38 40  1  0  0  0  0
 40 41  1  0  0  0  0
 35 41  1  0  0  0  0
 40 42  1  1  0  0  0
 37 43  1  6  0  0  0
 33 44  1  0  0  0  0
 44 45  1  0  0  0  0
 30 45  1  0  0  0  0
 44 46  1  1  0  0  0
 32 47  1  6  0  0  0
 28 48  1  0  0  0  0
 48 49  1  0  0  0  0
 25 49  1  0  0  0  0
 48 50  1  1  0  0  0
 27 51  1  6  0  0  0
 19 52  1  6  0  0  0
 12 53  1  6  0  0  0
  2 54  1  6  0  0  0
  1 55  1  6  0  0  0
M  END
>  <Name>
Digoxin

>  <CAS>
20830-75-5

>  <Formula>
C41H64O14

>  <MolWt>
780.96 

>  <Bioactivity>
A cardiotonic glycoside obtained mainly from Digitalis lanata; it consists of three sugars and the aglycone digoxigenin. Digoxin has positive inotropic and negative chronotropic activity. It is used to control ventricular rate in atrial fibrillation and in the management of congestive heart failure with atrial fibrillation. Its use in congestive heart failure and sinus rhythm is less certain. The margin between toxic and therapeutic doses is small. (From Martindale, The Extra Pharmacopoeia, 30th ed, p666)

>  <Pathways>
Membrane Transporter/Ion Channel

>  <Target>
ATPase inhibitor

>  <Receptor>
Cholesterol side-chain cleavage enzyme;Na+, K+-ATPase

>  <Reference>
1. Ravikumar A, et al. Indian J Exp Biol. 2000 May;38(5):438-46. 

$$$$
123040-16-4
  Mrv1561503291623562D          

 26 27  0  0  0  0            999 V2000
    0.4125    0.0000    0.0000 H   0  3  0  0  0  0  0  0  0  0  0  0
    3.0127    0.5156    0.0000 C   0  0  0  0  0  0  0  0  0  0  0  0
    3.7272    0.9281    0.0000 C   0  0  0  0  0  0  0  0  0  0  0  0
    3.7272    1.7531    0.0000 N   0  0  0  0  0  0  0  0  0  0  0  0
    4.4416    2.1656    0.0000 C   0  0  0  0  0  0  0  0  0  0  0  0
    4.4416    2.9906    0.0000 O   0  0  0  0  0  0  0  0  0  0  0  0
    5.1561    1.7531    0.0000 C   0  0  0  0  0  0  0  0  0  0  0  0
    5.1561    0.9281    0.0000 O   0  0  0  0  0  0  0  0  0  0  0  0
    4.4416    0.5156    0.0000 C   0  0  0  0  0  0  0  0  0  0  0  0
    4.4416   -0.3094    0.0000 C   0  0  0  0  0  0  0  0  0  0  0  0
    5.1561   -0.7219    0.0000 C   0  0  0  0  0  0  0  0  0  0  0  0
    5.1561   -1.5469    0.0000 O   0  0  0  0  0  0  0  0  0  0  0  0
    5.8706   -0.3094    0.0000 N   0  0  0  0  0  0  0  0  0  0  0  0
    6.5850   -0.7219    0.0000 C   0  0  0  0  0  0  0  0  0  0  0  0
    7.2995   -0.3094    0.0000 C   0  0  0  0  0  0  0  0  0  0  0  0
    8.0140   -0.7219    0.0000 C   0  0  0  0  0  0  0  0  0  0  0  0
    8.0140   -1.5469    0.0000 C   0  0  0  0  0  0  0  0  0  0  0  0
    7.2995   -1.9594    0.0000 N   0  0  0  0  0  0  0  0  0  0  0  0
    6.5850   -1.5469    0.0000 C   0  0  0  0  0  0  0  0  0  0  0  0
    7.4370   -1.4094    0.0000 C   0  0  0  0  0  0  0  0  0  0  0  0
    7.4370   -0.8594    0.0000 C   0  0  0  0  0  0  0  0  0  0  0  0
    3.7272   -0.7219    0.0000 C   0  0  0  0  0  0  0  0  0  0  0  0
    3.0127   -0.3094    0.0000 C   0  0  0  0  0  0  0  0  0  0  0  0
    2.2982   -0.7219    0.0000 Cl  0  0  0  0  0  0  0  0  0  0  0  0
    3.0127    2.1656    0.0000 C   0  0  0  0  0  0  0  0  0  0  0  0
   -0.4125    0.0000    0.0000 Cl  0  5  0  0  0  0  0  0  0  0  0  0
  2  3  2  0  0  0  0
  3  4  1  0  0  0  0
  4  5  1  0  0  0  0
  5  6  2  0  0  0  0
  5  7  1  0  0  0  0
  7  8  1  0  0  0  0
  8  9  1  0  0  0  0
  3  9  1  0  0  0  0
  9 10  2  0  0  0  0
 10 11  1  0  0  0  0
 11 12  2  0  0  0  0
 11 13  1  0  0  0  0
 13 14  1  0  0  0  0
 14 15  1  0  0  0  0
 15 16  1  0  0  0  0
 16 17  1  0  0  0  0
 17 18  1  0  0  0  0
 18 19  1  0  0  0  0
 14 19  1  0  0  0  0
 18 20  1  0  0  0  0
 20 21  1  0  0  0  0
 15 21  1  0  0  0  0
 10 22  1  0  0  0  0
 22 23  2  0  0  0  0
  2 23  1  0  0  0  0
 23 24  1  0  0  0  0
  4 25  1  0  0  0  0
M  CHG  2   1   1  26  -1
M  END
>  <Name>
Azasetron HCl

>  <CAS>
123040-16-4

>  <Formula>
C17H20ClN3O3.HCl

>  <MolWt>
386.27 

>  <Bioactivity>
Azasetron Hydrochloride is a 5-HT3 receptor antagonist which is used as an anti-emetic.Azasetron inhibited the specific binding of [3H]quipazine to 5-HT3 receptors at the synaptic membranes of the rat cerebral cortex.

>  <Pathways>
Neuroscience

>  <Target>
5-HT Receptor antagonist

>  <Receptor>
5-HT Receptor

>  <Reference>
1. Katayama K, et al. Jpn J Pharmacol. 1997 Apr;73(4):357-60.

$$$$
122892-31-3
  Mrv1561503291623562D          

 28 27  0  0  0  0            999 V2000
    0.4125    0.0000    0.0000 H   0  3  0  0  0  0  0  0  0  0  0  0
    4.9131   -0.7933    0.0000 C   0  0  0  0  0  0  0  0  0  0  0  0
    4.1986   -0.3808    0.0000 C   0  0  0  0  0  0  0  0  0  0  0  0
    3.4841   -0.7933    0.0000 O   0  0  0  0  0  0  0  0  0  0  0  0
    2.7696   -0.3808    0.0000 C   0  0  0  0  0  0  0  0  0  0  0  0
    4.1986    0.4442    0.0000 C   0  0  0  0  0  0  0  0  0  0  0  0
    4.9131    0.8567    0.0000 C   0  0  0  0  0  0  0  0  0  0  0  0
    5.6275    0.4442    0.0000 C   0  0  0  0  0  0  0  0  0  0  0  0
    5.6275   -0.3808    0.0000 C   0  0  0  0  0  0  0  0  0  0  0  0
    6.3420   -0.7933    0.0000 C   0  0  0  0  0  0  0  0  0  0  0  0
    6.3420   -1.6183    0.0000 O   0  0  0  0  0  0  0  0  0  0  0  0
    7.0565   -0.3808    0.0000 N   0  0  0  0  0  0  0  0  0  0  0  0
    7.7709   -0.7933    0.0000 C   0  0  0  0  0  0  0  0  0  0  0  0
    8.4854   -0.3808    0.0000 C   0  0  0  0  0  0  0  0  0  0  0  0
    8.4854    0.4442    0.0000 C   0  0  0  0  0  0  0  0  0  0  0  0
    9.1999    0.8567    0.0000 C   0  0  0  0  0  0  0  0  0  0  0  0
    9.9144    0.4442    0.0000 C   0  0  0  0  0  0  0  0  0  0  0  0
   10.6288    0.8567    0.0000 O   0  0  0  0  0  0  0  0  0  0  0  0
   11.3433    0.4442    0.0000 C   0  0  0  0  0  0  0  0  0  0  0  0
   12.0578    0.8567    0.0000 C   0  0  0  0  0  0  0  0  0  0  0  0
   12.7722    0.4442    0.0000 N   0  0  0  0  0  0  0  0  0  0  0  0
   13.4867    0.8567    0.0000 C   0  0  0  0  0  0  0  0  0  0  0  0
   12.7722   -0.3808    0.0000 C   0  0  0  0  0  0  0  0  0  0  0  0
    9.9144   -0.3808    0.0000 C   0  0  0  0  0  0  0  0  0  0  0  0
    9.1999   -0.7933    0.0000 C   0  0  0  0  0  0  0  0  0  0  0  0
    3.4841    0.8567    0.0000 O   0  0  0  0  0  0  0  0  0  0  0  0
    2.7696    0.4442    0.0000 C   0  0  0  0  0  0  0  0  0  0  0  0
   -0.4125    0.0000    0.0000 Cl  0  5  0  0  0  0  0  0  0  0  0  0
  2  3  2  0  0  0  0
  3  4  1  0  0  0  0
  4  5  1  0  0  0  0
  3  6  1  0  0  0  0
  6  7  2  0  0  0  0
  7  8  1  0  0  0  0
  8  9  2  0  0  0  0
  2  9  1  0  0  0  0
  9 10  1  0  0  0  0
 10 11  2  0  0  0  0
 10 12  1  0  0  0  0
 12 13  1  0  0  0  0
 13 14  1  0  0  0  0
 14 15  2  0  0  0  0
 15 16  1  0  0  0  0
 16 17  2  0  0  0  0
 17 18  1  0  0  0  0
 18 19  1  0  0  0  0
 19 20  1  0  0  0  0
 20 21  1  0  0  0  0
 21 22  1  0  0  0  0
 21 23  1  0  0  0  0
 17 24  1  0  0  0  0
 24 25  2  0  0  0  0
 14 25  1  0  0  0  0
  6 26  1  0  0  0  0
 26 27  1  0  0  0  0
M  CHG  2   1   1  28  -1
M  END
>  <Name>
Itopride HCl

>  <CAS>
122892-31-3

>  <Formula>
C20H27CLN2O4

>  <MolWt>
394.90 

>  <Bioactivity>
Itopride is a dopamine D2 antagonist with acetylcholinesterase inhibitory actions.

>  <Pathways>
Neuroscience

>  <Target>
AChR antagonist;Dopamine Receptor antagonist

>  <Receptor>
Musciarinic AChR;Dopamine receptor

>  <Reference>
1. Choung RS, et al. Neurogastroenterol Motil. 2007, 19(3):180-7.

$$$$
T2398
  Mrv1561503291623562D          

 36 37  0  0  0  0            999 V2000
    1.3039    2.1342    0.0000 C   0  0  0  0  0  0  0  0  0  0  0  0
    0.5894    1.7217    0.0000 C   0  0  0  0  0  0  0  0  0  0  0  0
   -0.1251    2.1342    0.0000 C   0  0  0  0  0  0  0  0  0  0  0  0
   -0.8396    1.7217    0.0000 C   0  0  0  0  0  0  0  0  0  0  0  0
   -0.8396    0.8967    0.0000 N   0  0  0  0  0  0  0  0  0  0  0  0
   -0.1251    0.4842    0.0000 C   0  0  0  0  0  0  0  0  0  0  0  0
    0.5894    0.8967    0.0000 C   0  0  0  0  0  0  0  0  0  0  0  0
    1.3039    0.4842    0.0000 N   0  0  0  0  0  0  0  0  0  0  0  0
    2.0183    0.8967    0.0000 C   0  0  0  0  0  0  0  0  0  0  0  0
    1.3039   -0.3408    0.0000 C   0  0  0  0  0  0  0  0  0  0  0  0
    2.0183   -0.7533    0.0000 N   0  0  0  0  0  0  0  0  0  0  0  0
    2.0183   -1.5783    0.0000 C   0  0  0  0  0  0  0  0  0  0  0  0
    1.3039   -1.9908    0.0000 N   0  0  0  0  0  0  0  0  0  0  0  0
    0.5894   -1.5783    0.0000 C   0  0  0  0  0  0  0  0  0  0  0  0
    0.5894   -0.7533    0.0000 C   0  0  0  0  0  0  0  0  0  0  0  0
   -0.1952   -0.4983    0.0000 C   0  0  0  0  0  0  0  0  0  0  0  0
   -0.6802   -1.1658    0.0000 C   0  0  0  0  0  0  0  0  0  0  0  0
   -0.1952   -1.8332    0.0000 N   0  0  0  0  0  0  0  0  0  0  0  0
   -1.5540    0.4842    0.0000 C   0  0  0  0  0  0  0  0  0  0  0  0
   -2.2685    0.8967    0.0000 O   0  0  0  0  0  0  0  0  0  0  0  0
   -1.5540   -0.3408    0.0000 C   0  0  0  0  0  0  0  0  0  0  0  0
   -2.2685   -0.7533    0.0000 C   0  0  0  0  0  0  0  0  0  0  0  0
   -2.9830   -1.1658    0.0000 N   0  0  0  0  0  0  0  0  0  0  0  0
    5.3330   -0.8250    0.0000 C   0  0  0  0  0  0  0  0  0  0  0  0
    4.6185   -1.2375    0.0000 C   0  0  0  0  0  0  0  0  0  0  0  0
    4.6185   -2.0625    0.0000 O   0  0  0  0  0  0  0  0  0  0  0  0
    3.9040   -0.8250    0.0000 O   0  0  0  0  0  0  0  0  0  0  0  0
    5.3330   -0.0000    0.0000 C   0  0  0  0  0  0  0  0  0  0  0  0
    5.3330    0.8250    0.0000 C   0  0  0  0  0  0  0  0  0  0  0  0
    4.6185    1.2375    0.0000 C   0  0  0  0  0  0  0  0  0  0  0  0
    4.6185    2.0625    0.0000 O   0  0  0  0  0  0  0  0  0  0  0  0
    3.9040    0.8250    0.0000 O   0  0  0  0  0  0  0  0  0  0  0  0
    6.1580   -0.0000    0.0000 C   0  0  0  0  0  0  0  0  0  0  0  0
    6.5705    0.7145    0.0000 O   0  0  0  0  0  0  0  0  0  0  0  0
    6.5705   -0.7145    0.0000 O   0  0  0  0  0  0  0  0  0  0  0  0
    4.5080   -0.0000    0.0000 O   0  0  0  0  0  0  0  0  0  0  0  0
  1  2  1  0  0  0  0
  2  3  1  0  0  0  0
  3  4  1  0  0  0  0
  4  5  1  0  0  0  0
  5  6  1  0  0  0  0
  6  7  1  0  0  0  0
  2  7  1  0  0  0  0
  7  8  1  0  0  0  0
  8  9  1  0  0  0  0
  8 10  1  0  0  0  0
 10 11  2  0  0  0  0
 11 12  1  0  0  0  0
 12 13  2  0  0  0  0
 13 14  1  0  0  0  0
 14 15  2  0  0  0  0
 10 15  1  0  0  0  0
 15 16  1  0  0  0  0
 16 17  2  0  0  0  0
 17 18  1  0  0  0  0
 14 18  1  0  0  0  0
  5 19  1  0  0  0  0
 19 20  2  0  0  0  0
 19 21  1  0  0  0  0
 21 22  1  0  0  0  0
 22 23  3  0  0  0  0
 24 25  1  0  0  0  0
 25 26  2  0  0  0  0
 25 27  1  0  0  0  0
 24 28  1  0  0  0  0
 28 29  1  0  0  0  0
 29 30  1  0  0  0  0
 30 31  2  0  0  0  0
 30 32  1  0  0  0  0
 28 33  1  0  0  0  0
 33 34  2  0  0  0  0
 33 35  1  0  0  0  0
 28 36  1  0  0  0  0
M  END
>  <Name>
Tofacitinib (CP-690550) Citrate

>  <CAS>
540737-29-9

>  <Formula>
C22H28N6O8

>  <MolWt>
504.49 

>  <Bioactivity>
Tofacitinib citrate (CP-690550 citrate) is a novel inhibitor of JAK3 with IC50 of 1 nM, 20- to 100-fold less potent against JAK2 and JAK1.

>  <Pathways>
JAK/STAT Signaling

>  <Target>
JAK inhibitor

>  <Receptor>
JAK1/2/3

>  <Reference>
1. Changelian PS, et al, Science, 2003, 302(5646), 875-878.

$$$$
T1160
  Mrv1561503291623562D          

 37 40  0  0  1  0            999 V2000
    2.8705    0.0722    0.0000 C   0  0  2  0  0  0  0  0  0  0  0  0
    3.6826    0.2174    0.0000 C   0  0  2  0  0  0  0  0  0  0  0  0
    3.9629    0.9934    0.0000 C   0  0  2  0  0  0  0  0  0  0  0  0
    4.7875    0.9666    0.0000 C   0  0  0  0  0  0  0  0  0  0  0  0
    5.2939    1.6179    0.0000 C   0  0  0  0  0  0  0  0  0  0  0  0
    4.9830    2.3821    0.0000 C   0  0  0  0  0  0  0  0  0  0  0  0
    5.4893    3.0334    0.0000 C   0  0  0  0  0  0  0  0  0  0  0  0
    5.1784    3.7976    0.0000 C   0  0  0  0  0  0  0  0  0  0  0  0
    5.6848    4.4489    0.0000 C   0  0  0  0  0  0  0  0  0  0  0  0
    5.3739    5.2131    0.0000 C   0  0  0  0  0  0  0  0  0  0  0  0
    6.5020    4.3361    0.0000 C   0  0  0  0  0  0  0  0  0  0  0  0
    6.1111    1.5050    0.0000 C   0  0  0  0  0  0  0  0  0  0  0  0
    6.6175    2.1564    0.0000 O   0  0  0  0  0  0  0  0  0  0  0  0
    6.4220    0.7409    0.0000 O   0  0  0  0  0  0  0  0  0  0  0  0
    5.0168    0.1741    0.0000 C   0  0  2  0  0  0  0  0  0  0  0  0
    4.3340   -0.2889    0.0000 C   0  0  0  0  0  0  0  0  0  0  0  0
    5.7927   -0.1062    0.0000 O   0  0  0  0  0  0  0  0  0  0  0  0
    5.9380   -0.9184    0.0000 C   0  0  0  0  0  0  0  0  0  0  0  0
    6.7139   -1.1987    0.0000 C   0  0  0  0  0  0  0  0  0  0  0  0
    5.3073   -1.4502    0.0000 O   0  0  0  0  0  0  0  0  0  0  0  0
    3.4311    1.6241    0.0000 C   0  0  0  0  0  0  0  0  0  0  0  0
    2.6190    1.4789    0.0000 C   0  0  2  0  0  0  0  0  0  0  0  0
    2.3387    0.7029    0.0000 C   0  0  1  0  0  0  0  0  0  0  0  0
    1.5266    0.5577    0.0000 C   0  0  2  0  0  0  0  0  0  0  0  0
    1.2463   -0.2182    0.0000 C   0  0  2  0  0  0  0  0  0  0  0  0
    0.4342   -0.3634    0.0000 C   0  0  1  0  0  0  0  0  0  0  0  0
   -0.0976    0.2673    0.0000 C   0  0  2  0  0  0  0  0  0  0  0  0
   -0.9098    0.1221    0.0000 O   0  0  0  0  0  0  0  0  0  0  0  0
    0.1827    1.0432    0.0000 C   0  0  0  0  0  0  0  0  0  0  0  0
    0.9948    1.1884    0.0000 C   0  0  0  0  0  0  0  0  0  0  0  0
    0.1539   -1.1393    0.0000 C   0  0  0  0  0  0  0  0  0  0  0  0
    1.7781   -0.8489    0.0000 C   0  0  0  0  0  0  0  0  0  0  0  0
    2.5902   -0.7037    0.0000 C   0  0  0  0  0  0  0  0  0  0  0  0
    1.8069    1.3336    0.0000 C   0  0  0  0  0  0  0  0  0  0  0  0
    2.0872    2.1096    0.0000 O   0  0  0  0  0  0  0  0  0  0  0  0
    3.4850   -0.5835    0.0000 C   0  0  0  0  0  0  0  0  0  0  0  0
    3.1814   -0.6920    0.0000 C   0  0  0  0  0  0  0  0  0  0  0  0
  1  2  1  0  0  0  0
  2  3  1  0  0  0  0
  3  4  1  1  0  0  0
  4  5  2  0  0  0  0
  5  6  1  0  0  0  0
  6  7  1  0  0  0  0
  7  8  1  0  0  0  0
  8  9  2  0  0  0  0
  9 10  1  0  0  0  0
  9 11  1  0  0  0  0
  5 12  1  0  0  0  0
 12 13  1  0  0  0  0
 12 14  2  0  0  0  0
  4 15  1  0  0  0  0
 15 16  1  0  0  0  0
  2 16  1  0  0  0  0
 15 17  1  1  0  0  0
 17 18  1  0  0  0  0
 18 19  1  0  0  0  0
 18 20  2  0  0  0  0
  3 21  1  0  0  0  0
 21 22  1  0  0  0  0
 22 23  1  0  0  0  0
  1 23  1  0  0  0  0
 23 24  1  6  0  0  0
 24 25  1  0  0  0  0
 25 26  1  0  0  0  0
 26 27  1  0  0  0  0
 27 28  1  6  0  0  0
 27 29  1  0  0  0  0
 29 30  1  0  0  0  0
 24 30  1  0  0  0  0
 26 31  1  6  0  0  0
 25 32  1  1  0  0  0
 32 33  1  0  0  0  0
  1 33  1  0  0  0  0
 24 34  1  1  0  0  0
 22 35  1  6  0  0  0
  2 36  1  1  0  0  0
  1 37  1  6  0  0  0
M  END
>  <Name>
Fusidine

>  <CAS>
6990-06-3

>  <Formula>
C31H48O6

>  <MolWt>
516.72 

>  <Bioactivity>
An antibiotic isolated from the fermentation broth of Fusidium coccineum. (From Merck Index, 11th ed) It acts by inhibiting translocation during protein synthesis.

>  <Pathways>
Microbiology & Virology

>  <Target>
Antibiotic

>  <Receptor>
EEFG;CAT

>  <Reference>
1. Day PJ, et al. Biochemistry. 1995 May 16;34(19):6416-22.

$$$$
106463-17-6
  Mrv1561503291623562D          

 30 29  0  0  1  0            999 V2000
    0.6124    0.4420    0.0000 C   0  0  0  0  0  0  0  0  0  0  0  0
   -0.1021    0.8545    0.0000 N   0  0  0  0  0  0  0  0  0  0  0  0
   -0.8165    0.4420    0.0000 C   0  0  0  0  0  0  0  0  0  0  0  0
   -1.5310    0.8545    0.0000 C   0  0  0  0  0  0  0  0  0  0  0  0
   -2.2455    0.4420    0.0000 O   0  0  0  0  0  0  0  0  0  0  0  0
   -2.9600    0.8545    0.0000 C   0  0  0  0  0  0  0  0  0  0  0  0
   -3.6744    0.4420    0.0000 C   0  0  0  0  0  0  0  0  0  0  0  0
   -3.6744   -0.3830    0.0000 O   0  0  0  0  0  0  0  0  0  0  0  0
   -4.3889   -0.7955    0.0000 C   0  0  0  0  0  0  0  0  0  0  0  0
   -4.3889   -1.6205    0.0000 C   0  0  0  0  0  0  0  0  0  0  0  0
   -4.3889    0.8545    0.0000 C   0  0  0  0  0  0  0  0  0  0  0  0
   -4.3889    1.6795    0.0000 C   0  0  0  0  0  0  0  0  0  0  0  0
   -3.6744    2.0920    0.0000 C   0  0  0  0  0  0  0  0  0  0  0  0
   -2.9600    1.6795    0.0000 C   0  0  0  0  0  0  0  0  0  0  0  0
    1.3269    0.8545    0.0000 C   0  0  0  0  0  0  0  0  0  0  0  0
    2.0413    0.4420    0.0000 C   0  0  0  0  0  0  0  0  0  0  0  0
    2.7558    0.8545    0.0000 C   0  0  0  0  0  0  0  0  0  0  0  0
    3.4703    0.4420    0.0000 C   0  0  0  0  0  0  0  0  0  0  0  0
    3.4703   -0.3830    0.0000 C   0  0  0  0  0  0  0  0  0  0  0  0
    4.1848   -0.7955    0.0000 O   0  0  0  0  0  0  0  0  0  0  0  0
    4.8992   -0.3830    0.0000 C   0  0  0  0  0  0  0  0  0  0  0  0
    2.7558   -0.7955    0.0000 C   0  0  0  0  0  0  0  0  0  0  0  0
    2.0413   -0.3830    0.0000 C   0  0  0  0  0  0  0  0  0  0  0  0
    2.7558   -1.6205    0.0000 S   0  0  0  0  0  0  0  0  0  0  0  0
    2.7558   -2.4455    0.0000 O   0  0  0  0  0  0  0  0  0  0  0  0
    1.9308   -1.6205    0.0000 O   0  0  0  0  0  0  0  0  0  0  0  0
    3.5808   -1.6205    0.0000 N   0  0  0  0  0  0  0  0  0  0  0  0
    0.6124   -0.3830    0.0000 C   0  0  0  0  0  0  0  0  0  0  0  0
    8.0814    0.0000    0.0000 H   0  3  0  0  0  0  0  0  0  0  0  0
    7.2564    0.0000    0.0000 Cl  0  5  0  0  0  0  0  0  0  0  0  0
  1  2  1  0  0  0  0
  2  3  1  0  0  0  0
  3  4  1  0  0  0  0
  4  5  1  0  0  0  0
  5  6  1  0  0  0  0
  6  7  2  0  0  0  0
  7  8  1  0  0  0  0
  8  9  1  0  0  0  0
  9 10  1  0  0  0  0
  7 11  1  0  0  0  0
 11 12  2  0  0  0  0
 12 13  1  0  0  0  0
 13 14  2  0  0  0  0
  6 14  1  0  0  0  0
  1 15  1  0  0  0  0
 15 16  1  0  0  0  0
 16 17  2  0  0  0  0
 17 18  1  0  0  0  0
 18 19  2  0  0  0  0
 19 20  1  0  0  0  0
 20 21  1  0  0  0  0
 19 22  1  0  0  0  0
 22 23  2  0  0  0  0
 16 23  1  0  0  0  0
 22 24  1  0  0  0  0
 24 25  2  0  0  0  0
 24 26  2  0  0  0  0
 24 27  1  0  0  0  0
  1 28  1  0  0  0  0
M  CHG  2  29   1  30  -1
M  END
>  <Name>
Tamsulosin HCl

>  <CAS>
106463-17-6

>  <Formula>
C20H29ClN2O5S

>  <MolWt>
444.97 

>  <Bioactivity>
Tamsulosin is a selective antagonist at alpha-1A and alpha-1B-adrenoceptors in the prostate, prostatic capsule, prostatic urethra, and bladder neck. At least three discrete alpha1-adrenoceptor subtypes have been identified: alpha-1A, alpha-1B and alpha-1D; their distribution differs between human organs and tissue. Approximately 70% of the alpha1-receptors in human prostate are of the alpha-1A subtype. Blockage of these receptors causes relaxation of smooth muscles in the bladder neck and prostate.

>  <Pathways>
GPCR/G Protein

>  <Target>
Adrenergic Receptor antagonist

>  <Receptor>
Adrenergic Receptor

>  <Reference>
1. Abrams P, et al. Br J Urol. 1997 Oct; 80(4):587-96.

$$$$
T1181
  Mrv1561503291623562D          

 31 34  0  0  0  0            999 V2000
    0.0000   -1.6500    0.0000 C   0  0  0  0  0  0  0  0  0  0  0  0
    0.7145   -1.2375    0.0000 C   0  0  0  0  0  0  0  0  0  0  0  0
    0.7145   -0.4125    0.0000 C   0  0  0  0  0  0  0  0  0  0  0  0
   -0.0000    0.0000    0.0000 C   0  0  0  0  0  0  0  0  0  0  0  0
   -0.7145   -0.4125    0.0000 C   0  0  0  0  0  0  0  0  0  0  0  0
   -0.7145   -1.2375    0.0000 C   0  0  0  0  0  0  0  0  0  0  0  0
   -1.4289   -1.6500    0.0000 O   0  0  0  0  0  0  0  0  0  0  0  0
   -1.4289   -2.4750    0.0000 C   0  0  0  0  0  0  0  0  0  0  0  0
   -1.4289   -0.0000    0.0000 O   0  0  0  0  0  0  0  0  0  0  0  0
   -2.1434   -0.4125    0.0000 C   0  0  0  0  0  0  0  0  0  0  0  0
   -2.8579   -0.0000    0.0000 C   0  0  0  0  0  0  0  0  0  0  0  0
   -3.5724   -0.4125    0.0000 C   0  0  0  0  0  0  0  0  0  0  0  0
   -4.2868   -0.0000    0.0000 N   0  0  0  0  0  0  0  0  0  0  0  0
   -5.0013   -0.4125    0.0000 C   0  0  0  0  0  0  0  0  0  0  0  0
   -5.7158   -0.0000    0.0000 C   0  0  0  0  0  0  0  0  0  0  0  0
   -5.7158    0.8250    0.0000 O   0  0  0  0  0  0  0  0  0  0  0  0
   -5.0013    1.2375    0.0000 C   0  0  0  0  0  0  0  0  0  0  0  0
   -4.2868    0.8250    0.0000 C   0  0  0  0  0  0  0  0  0  0  0  0
    1.4289    0.0000    0.0000 C   0  0  0  0  0  0  0  0  0  0  0  0
    2.1434   -0.4125    0.0000 N   0  0  0  0  0  0  0  0  0  0  0  0
    2.1434   -1.2375    0.0000 C   0  0  0  0  0  0  0  0  0  0  0  0
    1.4289   -1.6500    0.0000 N   0  0  0  0  0  0  0  0  0  0  0  0
    1.4289    0.8250    0.0000 N   0  0  0  0  0  0  0  0  0  0  0  0
    2.1434    1.2375    0.0000 C   0  0  0  0  0  0  0  0  0  0  0  0
    2.1434    2.0625    0.0000 C   0  0  0  0  0  0  0  0  0  0  0  0
    2.8579    2.4750    0.0000 C   0  0  0  0  0  0  0  0  0  0  0  0
    3.5724    2.0625    0.0000 C   0  0  0  0  0  0  0  0  0  0  0  0
    3.5724    1.2375    0.0000 C   0  0  0  0  0  0  0  0  0  0  0  0
    2.8579    0.8250    0.0000 C   0  0  0  0  0  0  0  0  0  0  0  0
    4.2868    0.8250    0.0000 Cl  0  0  0  0  0  0  0  0  0  0  0  0
    4.2868    2.4750    0.0000 F   0  0  0  0  0  0  0  0  0  0  0  0
  1  2  2  0  0  0  0
  2  3  1  0  0  0  0
  3  4  2  0  0  0  0
  4  5  1  0  0  0  0
  5  6  2  0  0  0  0
  1  6  1  0  0  0  0
  6  7  1  0  0  0  0
  7  8  1  0  0  0  0
  5  9  1  0  0  0  0
  9 10  1  0  0  0  0
 10 11  1  0  0  0  0
 11 12  1  0  0  0  0
 12 13  1  0  0  0  0
 13 14  1  0  0  0  0
 14 15  1  0  0  0  0
 15 16  1  0  0  0  0
 16 17  1  0  0  0  0
 17 18  1  0  0  0  0
 13 18  1  0  0  0  0
  3 19  1  0  0  0  0
 19 20  2  0  0  0  0
 20 21  1  0  0  0  0
 21 22  2  0  0  0  0
  2 22  1  0  0  0  0
 19 23  1  0  0  0  0
 23 24  1  0  0  0  0
 24 25  2  0  0  0  0
 25 26  1  0  0  0  0
 26 27  2  0  0  0  0
 27 28  1  0  0  0  0
 28 29  2  0  0  0  0
 24 29  1  0  0  0  0
 28 30  1  0  0  0  0
 27 31  1  0  0  0  0
M  END
>  <Name>
Gefitinib (ZD1839)

>  <CAS>
184475-35-2

>  <Formula>
C22H24ClFN4O3

>  <MolWt>
446.91 

>  <Bioactivity>
Gefitinib (originally coded ZD1839) is a drug used in the treatment of certain types of cancer. Acting in a similar manner to erlotinib (marketed as Tarceva), gefitinib selectively targets the mutant proteins in malignant cells. It is marketed by AstraZeneca under the trade name Iressa.  

>  <Pathways>
Tyrosine Kinase/Adaptors; JAK/STAT Signaling 

>  <Target>
EGFR antagonist

>  <Receptor>
EGFR

>  <Reference>
1. Ciardiello F, et al. Clin Cancer Res. 2000 May;6(5):2053-63. 

$$$$
T0297
  Mrv1561503291623562D          

 20 22  0  0  1  0            999 V2000
   -0.3984   -2.1500    0.0000 C   0  0  2  0  0  0  0  0  0  0  0  0
    0.0865   -2.8174    0.0000 O   0  0  0  0  0  0  0  0  0  0  0  0
   -0.3984   -3.4849    0.0000 C   0  0  1  0  0  0  0  0  0  0  0  0
   -1.1831   -3.2299    0.0000 C   0  0  1  0  0  0  0  0  0  0  0  0
   -1.8505   -3.7149    0.0000 O   0  0  0  0  0  0  0  0  0  0  0  0
   -1.1831   -2.4049    0.0000 C   0  0  2  0  0  0  0  0  0  0  0  0
   -1.8505   -1.9200    0.0000 F   0  0  0  0  0  0  0  0  0  0  0  0
   -0.1435   -4.2695    0.0000 C   0  0  0  0  0  0  0  0  0  0  0  0
   -0.6955   -4.8826    0.0000 O   0  0  0  0  0  0  0  0  0  0  0  0
   -0.1435   -1.3654    0.0000 N   0  0  0  0  0  0  0  0  0  0  0  0
    0.6411   -1.1104    0.0000 C   0  0  0  0  0  0  0  0  0  0  0  0
    0.6411   -0.2854    0.0000 C   0  0  0  0  0  0  0  0  0  0  0  0
   -0.1435   -0.0305    0.0000 N   0  0  0  0  0  0  0  0  0  0  0  0
   -0.6284   -0.6979    0.0000 C   0  0  0  0  0  0  0  0  0  0  0  0
    1.3556    0.1271    0.0000 C   0  0  0  0  0  0  0  0  0  0  0  0
    2.0701   -0.2854    0.0000 N   0  0  0  0  0  0  0  0  0  0  0  0
    2.0701   -1.1104    0.0000 C   0  0  0  0  0  0  0  0  0  0  0  0
    1.3556   -1.5229    0.0000 N   0  0  0  0  0  0  0  0  0  0  0  0
    2.7845   -1.5229    0.0000 Cl  0  0  0  0  0  0  0  0  0  0  0  0
    1.3556    0.9521    0.0000 N   0  0  0  0  0  0  0  0  0  0  0  0
  1  2  1  0  0  0  0
  2  3  1  0  0  0  0
  3  4  1  0  0  0  0
  4  5  1  1  0  0  0
  4  6  1  0  0  0  0
  1  6  1  0  0  0  0
  6  7  1  6  0  0  0
  3  8  1  6  0  0  0
  8  9  1  0  0  0  0
  1 10  1  6  0  0  0
 10 11  1  0  0  0  0
 11 12  2  0  0  0  0
 12 13  1  0  0  0  0
 13 14  2  0  0  0  0
 10 14  1  0  0  0  0
 12 15  1  0  0  0  0
 15 16  2  0  0  0  0
 16 17  1  0  0  0  0
 17 18  2  0  0  0  0
 11 18  1  0  0  0  0
 17 19  1  0  0  0  0
 15 20  1  0  0  0  0
M  END
>  <Name>
Clofarabine

>  <CAS>
123318-82-1

>  <Formula>
C10H11ClFN5O3

>  <MolWt>
303.68 

>  <Bioactivity>
Clofarabine is a purine nucleoside antimetabolite that is being studied in the treatment of cancer. It is marketed in the U.S. and Canada as Clolar. In Europe and Australia/New Zealand the product is marketed under the name Evoltra. Clofarabine is used in paediatrics to treat a type of leukaemia called relapsed or refractory acute lymphoblastic leukaemia (ALL), only after at least two other types of treatment have failed. It is not known if the drug extends life expectancy. Some investigations of effectiveness in cases of acute myeloid leukaemia (AML) and juvenile myelomonocytic leukaemia (JMML) have been carried out.  

>  <Pathways>
DNA Damage/DNA Repair

>  <Target>
RNA Synthesis

>  <Receptor>
Ribonucleotide reductase

>  <Reference>
1. Bonate PL, et al. Nat Rev Drug Discov, 2006, 5(10), 855-863.

$$$$
136434-34-9
  Mrv1561503291623562D          

 23 23  0  0  1  0            999 V2000
    0.4083    0.7365    0.0000 C   0  0  0  0  0  0  0  0  0  0  0  0
   -0.3062    0.3240    0.0000 O   0  0  0  0  0  0  0  0  0  0  0  0
   -0.3062   -0.5010    0.0000 C   0  0  0  0  0  0  0  0  0  0  0  0
   -1.0207   -0.9135    0.0000 C   0  0  0  0  0  0  0  0  0  0  0  0
   -1.0207   -1.7385    0.0000 C   0  0  0  0  0  0  0  0  0  0  0  0
   -0.3062   -2.1510    0.0000 C   0  0  0  0  0  0  0  0  0  0  0  0
    0.4083   -1.7385    0.0000 C   0  0  0  0  0  0  0  0  0  0  0  0
    0.4083   -0.9135    0.0000 C   0  0  0  0  0  0  0  0  0  0  0  0
   -1.7351   -2.1510    0.0000 C   0  0  0  0  0  0  0  0  0  0  0  0
   -2.4496   -1.7385    0.0000 C   0  0  0  0  0  0  0  0  0  0  0  0
   -2.4496   -0.9135    0.0000 C   0  0  0  0  0  0  0  0  0  0  0  0
   -1.7351   -0.5010    0.0000 C   0  0  0  0  0  0  0  0  0  0  0  0
    0.4083    1.5615    0.0000 C   0  0  0  0  0  0  0  0  0  0  0  0
   -0.2592    2.0464    0.0000 C   0  0  0  0  0  0  0  0  0  0  0  0
   -0.0042    2.8310    0.0000 C   0  0  0  0  0  0  0  0  0  0  0  0
    0.8208    2.8310    0.0000 C   0  0  0  0  0  0  0  0  0  0  0  0
    1.0757    2.0464    0.0000 S   0  0  0  0  0  0  0  0  0  0  0  0
    1.1227    0.3240    0.0000 C   0  0  0  0  0  0  0  0  0  0  0  0
    1.8372    0.7365    0.0000 C   0  0  0  0  0  0  0  0  0  0  0  0
    2.5517    0.3240    0.0000 N   0  0  0  0  0  0  0  0  0  0  0  0
    2.5517   -0.5010    0.0000 C   0  0  0  0  0  0  0  0  0  0  0  0
    5.7338    0.0000    0.0000 H   0  3  0  0  0  0  0  0  0  0  0  0
    4.9088    0.0000    0.0000 Cl  0  5  0  0  0  0  0  0  0  0  0  0
  1  2  1  0  0  0  0
  2  3  1  0  0  0  0
  3  4  2  0  0  0  0
  4  5  1  0  0  0  0
  5  6  2  0  0  0  0
  6  7  1  0  0  0  0
  7  8  2  0  0  0  0
  3  8  1  0  0  0  0
  5  9  1  0  0  0  0
  9 10  2  0  0  0  0
 10 11  1  0  0  0  0
 11 12  2  0  0  0  0
  4 12  1  0  0  0  0
  1 13  1  0  0  0  0
 13 14  2  0  0  0  0
 14 15  1  0  0  0  0
 15 16  2  0  0  0  0
 16 17  1  0  0  0  0
 13 17  1  0  0  0  0
  1 18  1  0  0  0  0
 18 19  1  0  0  0  0
 19 20  1  0  0  0  0
 20 21  1  0  0  0  0
M  CHG  2  22   1  23  -1
M  END
>  <Name>
Duloxetine HCl

>  <CAS>
136434-34-9

>  <Formula>
C18H20ClNOS

>  <MolWt>
333.88 

>  <Bioactivity>
Duloxetine HCl is a selective serotonin and norepinephrine reuptake inhibitor .

>  <Pathways>
Neuroscience

>  <Target>
Dopamine uptake inhibitor;Noradrenaline uptake inhibitor;Serotonin uptake inhibitor

>  <Receptor>
Sodium-dependent dopamine transporter;Sodium-dependent noradrenaline transporter;Sodium-dependent serotonin transporter

>  <Reference>
1. Chen F, et al. Eur Neuropsychopharmacol. 2005 Mar; 15(2):193-8.

$$$$
T1326
  Mrv1561503291623562D          

101106  0  0  1  0            999 V2000
   -0.6062    0.2867    0.0000 C   0  0  2  0  0  0  0  0  0  0  0  0
    0.1083    0.6992    0.0000 O   0  0  0  0  0  0  0  0  0  0  0  0
    0.1083    1.5242    0.0000 C   0  0  1  0  0  0  0  0  0  0  0  0
   -0.6062    1.9367    0.0000 O   0  0  0  0  0  0  0  0  0  0  0  0
   -0.6062    2.7617    0.0000 C   0  0  0  0  0  0  0  0  0  0  0  0
    0.1083    3.1742    0.0000 C   0  0  2  0  0  0  0  0  0  0  0  0
   -0.4220    3.8062    0.0000 O   0  0  0  0  0  0  0  0  0  0  0  0
    0.8227    2.7617    0.0000 C   0  0  2  0  0  0  0  0  0  0  0  0
    1.5372    3.1742    0.0000 N   0  0  0  0  0  0  0  0  0  0  0  0
    2.2517    2.7617    0.0000 C   0  0  0  0  0  0  0  0  0  0  0  0
    0.8227    1.9367    0.0000 C   0  0  1  0  0  0  0  0  0  0  0  0
    1.5372    1.5242    0.0000 O   0  0  0  0  0  0  0  0  0  0  0  0
    0.6386    3.8062    0.0000 C   0  0  0  0  0  0  0  0  0  0  0  0
   -0.6062   -0.5383    0.0000 C   0  0  1  0  0  0  0  0  0  0  0  0
    0.1083   -0.9508    0.0000 O   0  0  0  0  0  0  0  0  0  0  0  0
   -1.3207   -0.9508    0.0000 C   0  0  2  0  0  0  0  0  0  0  0  0
   -1.3207   -1.7758    0.0000 O   0  0  0  0  0  0  0  0  0  0  0  0
   -0.6062   -2.1883    0.0000 C   0  0  1  0  0  0  0  0  0  0  0  0
    0.1083   -1.7758    0.0000 O   0  0  0  0  0  0  0  0  0  0  0  0
    0.8227   -2.1883    0.0000 C   0  0  1  0  0  0  0  0  0  0  0  0
    0.8227   -3.0133    0.0000 C   0  0  0  0  0  0  0  0  0  0  0  0
    0.1083   -3.4258    0.0000 C   0  0  0  0  0  0  0  0  0  0  0  0
   -0.6062   -3.0133    0.0000 C   0  0  1  0  0  0  0  0  0  0  0  0
   -1.3207   -3.4258    0.0000 N   0  0  0  0  0  0  0  0  0  0  0  0
    1.5372   -1.7758    0.0000 C   0  0  2  0  0  0  0  0  0  0  0  0
    2.2517   -2.1883    0.0000 N   0  0  0  0  0  0  0  0  0  0  0  0
    2.2517   -3.0133    0.0000 C   0  0  0  0  0  0  0  0  0  0  0  0
    1.5372   -0.9508    0.0000 C   0  0  0  0  0  0  0  0  0  0  0  0
   -2.0352   -0.5383    0.0000 C   0  0  1  0  0  0  0  0  0  0  0  0
   -2.7496   -0.9508    0.0000 N   0  0  0  0  0  0  0  0  0  0  0  0
   -2.0352    0.2867    0.0000 C   0  0  0  0  0  0  0  0  0  0  0  0
   -1.3207    0.6992    0.0000 C   0  0  1  0  0  0  0  0  0  0  0  0
   -1.3207    1.5242    0.0000 N   0  0  0  0  0  0  0  0  0  0  0  0
    7.4667    0.1925    0.0000 C   0  0  2  0  0  0  0  0  0  0  0  0
    6.7522    0.6050    0.0000 O   0  0  0  0  0  0  0  0  0  0  0  0
    6.7522    1.4300    0.0000 C   0  0  1  0  0  0  0  0  0  0  0  0
    7.4667    1.8425    0.0000 O   0  0  0  0  0  0  0  0  0  0  0  0
    7.4667    2.6675    0.0000 C   0  0  0  0  0  0  0  0  0  0  0  0
    6.7522    3.0800    0.0000 C   0  0  2  0  0  0  0  0  0  0  0  0
    7.2825    3.7120    0.0000 O   0  0  0  0  0  0  0  0  0  0  0  0
    6.0378    2.6675    0.0000 C   0  0  2  0  0  0  0  0  0  0  0  0
    5.3233    3.0800    0.0000 N   0  0  0  0  0  0  0  0  0  0  0  0
    4.6088    2.6675    0.0000 C   0  0  0  0  0  0  0  0  0  0  0  0
    6.0378    1.8425    0.0000 C   0  0  1  0  0  0  0  0  0  0  0  0
    5.3233    1.4300    0.0000 O   0  0  0  0  0  0  0  0  0  0  0  0
    6.2219    3.7120    0.0000 C   0  0  0  0  0  0  0  0  0  0  0  0
    7.4667   -0.6325    0.0000 C   0  0  1  0  0  0  0  0  0  0  0  0
    6.7522   -1.0450    0.0000 O   0  0  0  0  0  0  0  0  0  0  0  0
    8.1812   -1.0450    0.0000 C   0  0  2  0  0  0  0  0  0  0  0  0
    8.1812   -1.8700    0.0000 O   0  0  0  0  0  0  0  0  0  0  0  0
    8.8956   -2.2825    0.0000 C   0  0  1  0  0  0  0  0  0  0  0  0
    9.6101   -1.8700    0.0000 O   0  0  0  0  0  0  0  0  0  0  0  0
   10.3246   -2.2825    0.0000 C   0  0  1  0  0  0  0  0  0  0  0  0
   10.3246   -3.1075    0.0000 C   0  0  0  0  0  0  0  0  0  0  0  0
    9.6101   -3.5200    0.0000 C   0  0  0  0  0  0  0  0  0  0  0  0
    8.8956   -3.1075    0.0000 C   0  0  1  0  0  0  0  0  0  0  0  0
    8.1812   -3.5200    0.0000 N   0  0  0  0  0  0  0  0  0  0  0  0
   11.0390   -1.8700    0.0000 C   0  0  2  0  0  0  0  0  0  0  0  0
   11.0390   -1.0450    0.0000 N   0  0  0  0  0  0  0  0  0  0  0  0
   11.7535   -2.2825    0.0000 C   0  0  0  0  0  0  0  0  0  0  0  0
    8.8956   -0.6325    0.0000 C   0  0  1  0  0  0  0  0  0  0  0  0
    9.6101   -1.0450    0.0000 N   0  0  0  0  0  0  0  0  0  0  0  0
    8.8956    0.1925    0.0000 C   0  0  0  0  0  0  0  0  0  0  0  0
    8.1812    0.6050    0.0000 C   0  0  1  0  0  0  0  0  0  0  0  0
    8.1812    1.4300    0.0000 N   0  0  0  0  0  0  0  0  0  0  0  0
   -0.4609   -8.6895    0.0000 C   0  0  2  0  0  0  0  0  0  0  0  0
   -1.1754   -8.2770    0.0000 O   0  0  0  0  0  0  0  0  0  0  0  0
   -1.1754   -7.4520    0.0000 C   0  0  1  0  0  0  0  0  0  0  0  0
   -0.4609   -7.0395    0.0000 O   0  0  0  0  0  0  0  0  0  0  0  0
   -0.4609   -6.2145    0.0000 C   0  0  0  0  0  0  0  0  0  0  0  0
   -1.1754   -5.8020    0.0000 C   0  0  2  0  0  0  0  0  0  0  0  0
   -0.6451   -5.1700    0.0000 O   0  0  0  0  0  0  0  0  0  0  0  0
   -1.8899   -6.2145    0.0000 C   0  0  2  0  0  0  0  0  0  0  0  0
   -2.6044   -5.8020    0.0000 N   0  0  0  0  0  0  0  0  0  0  0  0
   -3.3188   -6.2145    0.0000 C   0  0  0  0  0  0  0  0  0  0  0  0
   -1.8899   -7.0395    0.0000 C   0  0  1  0  0  0  0  0  0  0  0  0
   -2.6044   -7.4520    0.0000 O   0  0  0  0  0  0  0  0  0  0  0  0
   -1.7057   -5.1700    0.0000 C   0  0  0  0  0  0  0  0  0  0  0  0
   -0.4609   -9.5145    0.0000 C   0  0  1  0  0  0  0  0  0  0  0  0
   -1.1754   -9.9270    0.0000 O   0  0  0  0  0  0  0  0  0  0  0  0
    0.2535   -9.9270    0.0000 C   0  0  2  0  0  0  0  0  0  0  0  0
    0.2535  -10.7520    0.0000 O   0  0  0  0  0  0  0  0  0  0  0  0
    0.9680  -11.1645    0.0000 C   0  0  1  0  0  0  0  0  0  0  0  0
    1.6825  -10.7520    0.0000 O   0  0  0  0  0  0  0  0  0  0  0  0
    2.3969  -11.1645    0.0000 C   0  0  1  0  0  0  0  0  0  0  0  0
    2.3969  -11.9895    0.0000 C   0  0  0  0  0  0  0  0  0  0  0  0
    1.6825  -12.4020    0.0000 C   0  0  0  0  0  0  0  0  0  0  0  0
    0.9680  -11.9895    0.0000 C   0  0  1  0  0  0  0  0  0  0  0  0
    0.2535  -12.4020    0.0000 N   0  0  0  0  0  0  0  0  0  0  0  0
    3.1114  -10.7520    0.0000 C   0  0  0  0  0  0  0  0  0  0  0  0
    3.1114   -9.9270    0.0000 N   0  0  0  0  0  0  0  0  0  0  0  0
    0.9680   -9.5145    0.0000 C   0  0  1  0  0  0  0  0  0  0  0  0
    1.6825   -9.9270    0.0000 N   0  0  0  0  0  0  0  0  0  0  0  0
    0.9680   -8.6895    0.0000 C   0  0  0  0  0  0  0  0  0  0  0  0
    0.2535   -8.2770    0.0000 C   0  0  1  0  0  0  0  0  0  0  0  0
    0.2535   -7.4520    0.0000 N   0  0  0  0  0  0  0  0  0  0  0  0
    5.8221   -9.6334    0.0000 O   0  0  0  0  0  0  0  0  0  0  0  0
    5.8221   -8.8084    0.0000 S   0  0  0  0  0  0  0  0  0  0  0  0
    5.8221   -7.9834    0.0000 O   0  0  0  0  0  0  0  0  0  0  0  0
    6.6471   -8.8084    0.0000 O   0  0  0  0  0  0  0  0  0  0  0  0
    4.9971   -8.8084    0.0000 O   0  0  0  0  0  0  0  0  0  0  0  0
  1  2  1  6  0  0  0
  3  2  1  1  0  0  0
  3  4  1  0  0  0  0
  4  5  1  0  0  0  0
  5  6  1  0  0  0  0
  6  7  1  6  0  0  0
  6  8  1  0  0  0  0
  8  9  1  6  0  0  0
  9 10  1  0  0  0  0
  8 11  1  0  0  0  0
  3 11  1  0  0  0  0
 11 12  1  1  0  0  0
  6 13  1  1  0  0  0
  1 14  1  0  0  0  0
 14 15  1  1  0  0  0
 14 16  1  0  0  0  0
 16 17  1  6  0  0  0
 18 17  1  1  0  0  0
 18 19  1  0  0  0  0
 19 20  1  0  0  0  0
 20 21  1  0  0  0  0
 21 22  1  0  0  0  0
 22 23  1  0  0  0  0
 18 23  1  0  0  0  0
 23 24  1  1  0  0  0
 20 25  1  6  0  0  0
 25 26  1  0  0  0  0
 26 27  1  0  0  0  0
 25 28  1  1  0  0  0
 16 29  1  0  0  0  0
 29 30  1  1  0  0  0
 29 31  1  0  0  0  0
 31 32  1  0  0  0  0
  1 32  1  0  0  0  0
 32 33  1  1  0  0  0
 34 35  1  1  0  0  0
 36 35  1  6  0  0  0
 36 37  1  0  0  0  0
 37 38  1  0  0  0  0
 38 39  1  0  0  0  0
 39 40  1  1  0  0  0
 39 41  1  0  0  0  0
 41 42  1  1  0  0  0
 42 43  1  0  0  0  0
 41 44  1  0  0  0  0
 36 44  1  0  0  0  0
 44 45  1  6  0  0  0
 39 46  1  6  0  0  0
 34 47  1  0  0  0  0
 47 48  1  6  0  0  0
 47 49  1  0  0  0  0
 49 50  1  1  0  0  0
 51 50  1  1  0  0  0
 51 52  1  0  0  0  0
 52 53  1  0  0  0  0
 53 54  1  0  0  0  0
 54 55  1  0  0  0  0
 55 56  1  0  0  0  0
 51 56  1  0  0  0  0
 56 57  1  1  0  0  0
 53 58  1  6  0  0  0
 58 59  1  6  0  0  0
 58 60  1  0  0  0  0
 49 61  1  0  0  0  0
 61 62  1  6  0  0  0
 61 63  1  0  0  0  0
 63 64  1  0  0  0  0
 34 64  1  0  0  0  0
 64 65  1  6  0  0  0
 66 67  1  1  0  0  0
 68 67  1  6  0  0  0
 68 69  1  0  0  0  0
 69 70  1  0  0  0  0
 70 71  1  0  0  0  0
 71 72  1  1  0  0  0
 71 73  1  0  0  0  0
 73 74  1  1  0  0  0
 74 75  1  0  0  0  0
 73 76  1  0  0  0  0
 68 76  1  0  0  0  0
 76 77  1  6  0  0  0
 71 78  1  6  0  0  0
 66 79  1  0  0  0  0
 79 80  1  6  0  0  0
 79 81  1  0  0  0  0
 81 82  1  1  0  0  0
 83 82  1  1  0  0  0
 83 84  1  0  0  0  0
 84 85  1  0  0  0  0
 85 86  1  0  0  0  0
 86 87  1  0  0  0  0
 87 88  1  0  0  0  0
 83 88  1  0  0  0  0
 88 89  1  1  0  0  0
 85 90  1  6  0  0  0
 90 91  1  0  0  0  0
 81 92  1  0  0  0  0
 92 93  1  6  0  0  0
 92 94  1  0  0  0  0
 94 95  1  0  0  0  0
 66 95  1  0  0  0  0
 95 96  1  6  0  0  0
 97 98  2  0  0  0  0
 98 99  2  0  0  0  0
 98100  1  0  0  0  0
 98101  1  0  0  0  0
M  END
>  <Name>
Gentamycin sulfate

>  <CAS>
1405-41-0

>  <Formula>
C60H127N15O26S

>  <MolWt>
1506.80 

>  <Bioactivity>
Gentamycin Sulfate is a broad-spectrum, aminoglycoside antibiotic used for cell culture which inhibits protein synthesis in sensitive organisms.

>  <Pathways>
Microbiology & Virology

>  <Target>
Antibiotic; DHFR inhibitor

>  <Receptor>
DHFR;30S ribosomal protein, 16S ribosomal protein

>  <Reference>
1. Doi Y, et al. Antimicrob Agents Chemother. 2007 Mar;51(3):852-6. 

$$$$
T1537
  Mrv1561503291623562D          

 65 68  0  0  0  0            999 V2000
    2.8538   -3.5517    0.0000 C   0  0  0  0  0  0  0  0  0  0  0  0
    2.4986   -2.8071    0.0000 C   0  0  0  0  0  0  0  0  0  0  0  0
    1.6762   -2.7424    0.0000 C   0  0  0  0  0  0  0  0  0  0  0  0
    1.3210   -1.9978    0.0000 C   0  0  0  0  0  0  0  0  0  0  0  0
    1.7882   -1.3179    0.0000 C   0  0  0  0  0  0  0  0  0  0  0  0
    1.4330   -0.5733    0.0000 C   0  0  0  0  0  0  0  0  0  0  0  0
    1.9116    0.1923    0.0000 C   0  0  0  0  0  0  0  0  0  0  0  0
    1.8038    1.0102    0.0000 C   0  0  0  0  0  0  0  0  0  0  0  0
    2.5485    1.3654    0.0000 C   0  0  0  0  0  0  0  0  0  0  0  0
    3.1164    0.7670    0.0000 C   0  0  0  0  0  0  0  0  0  0  0  0
    4.0125    0.6572    0.0000 C   0  0  0  0  0  0  0  0  0  0  0  0
    4.3677   -0.0874    0.0000 C   0  0  0  0  0  0  0  0  0  0  0  0
    5.1901   -0.1521    0.0000 C   0  0  0  0  0  0  0  0  0  0  0  0
    5.5453   -0.8968    0.0000 C   0  0  0  0  0  0  0  0  0  0  0  0
    6.3678   -0.9615    0.0000 C   0  0  0  0  0  0  0  0  0  0  0  0
    6.7230   -1.7061    0.0000 C   0  0  0  0  0  0  0  0  0  0  0  0
    7.5454   -1.7708    0.0000 C   0  0  0  0  0  0  0  0  0  0  0  0
    8.0127   -1.0909    0.0000 O   0  0  0  0  0  0  0  0  0  0  0  0
    7.9006   -2.5154    0.0000 C   0  0  0  0  0  0  0  0  0  0  0  0
    8.7231   -2.5801    0.0000 C   0  0  0  0  0  0  0  0  0  0  0  0
    9.0783   -3.3247    0.0000 C   0  0  0  0  0  0  0  0  0  0  0  0
    8.6110   -4.0047    0.0000 C   0  0  0  0  0  0  0  0  0  0  0  0
    8.9662   -4.7493    0.0000 C   0  0  0  0  0  0  0  0  0  0  0  0
    8.4990   -5.4292    0.0000 C   0  0  0  0  0  0  0  0  0  0  0  0
    8.8541   -6.1738    0.0000 O   0  0  0  0  0  0  0  0  0  0  0  0
    7.6765   -5.3645    0.0000 C   0  0  0  0  0  0  0  0  0  0  0  0
    7.3213   -4.6199    0.0000 C   0  0  0  0  0  0  0  0  0  0  0  0
    6.4988   -4.5552    0.0000 O   0  0  0  0  0  0  0  0  0  0  0  0
    6.1436   -3.8105    0.0000 C   0  0  0  0  0  0  0  0  0  0  0  0
    6.6109   -3.1306    0.0000 O   0  0  0  0  0  0  0  0  0  0  0  0
    5.3212   -3.7458    0.0000 C   0  0  0  0  0  0  0  0  0  0  0  0
    4.8539   -4.4258    0.0000 C   0  0  0  0  0  0  0  0  0  0  0  0
    4.0315   -4.3611    0.0000 C   0  0  0  0  0  0  0  0  0  0  0  0
    3.6763   -3.6164    0.0000 C   0  0  0  0  0  0  0  0  0  0  0  0
    4.0797   -2.5924    0.0000 C   0  0  0  0  0  0  0  0  0  0  0  0
    4.9660   -3.0012    0.0000 N   0  0  0  0  0  0  0  0  0  0  0  0
    4.1435   -2.9365    0.0000 C   0  0  0  0  0  0  0  0  0  0  0  0
    3.3659   -3.2119    0.0000 O   0  0  0  0  0  0  0  0  0  0  0  0
    3.7883   -2.1919    0.0000 C   0  0  0  0  0  0  0  0  0  0  0  0
    4.2556   -1.5120    0.0000 O   0  0  0  0  0  0  0  0  0  0  0  0
    2.9659   -2.1272    0.0000 C   0  0  0  0  0  0  0  0  0  0  0  0
    2.6107   -1.3826    0.0000 O   0  0  0  0  0  0  0  0  0  0  0  0
    3.3211   -2.8718    0.0000 O   0  0  0  0  0  0  0  0  0  0  0  0
    6.8540   -5.2998    0.0000 C   0  0  0  0  0  0  0  0  0  0  0  0
    6.0316   -5.2351    0.0000 C   0  0  0  0  0  0  0  0  0  0  0  0
    7.2092   -6.0444    0.0000 C   0  0  0  0  0  0  0  0  0  0  0  0
    6.7420   -6.7243    0.0000 C   0  0  0  0  0  0  0  0  0  0  0  0
    5.9195   -6.6596    0.0000 C   0  0  0  0  0  0  0  0  0  0  0  0
    5.4522   -7.3395    0.0000 C   0  0  0  0  0  0  0  0  0  0  0  0
    5.8074   -8.0842    0.0000 C   0  0  0  0  0  0  0  0  0  0  0  0
    6.6299   -8.1489    0.0000 C   0  0  0  0  0  0  0  0  0  0  0  0
    7.0972   -7.4690    0.0000 C   0  0  0  0  0  0  0  0  0  0  0  0
    6.9851   -8.8935    0.0000 O   0  0  0  0  0  0  0  0  0  0  0  0
    6.5178   -9.5734    0.0000 C   0  0  0  0  0  0  0  0  0  0  0  0
    5.3402   -8.7641    0.0000 O   0  0  0  0  0  0  0  0  0  0  0  0
    9.7887   -4.8140    0.0000 C   0  0  0  0  0  0  0  0  0  0  0  0
    9.9007   -3.3894    0.0000 C   0  0  0  0  0  0  0  0  0  0  0  0
    9.1903   -1.9002    0.0000 O   0  0  0  0  0  0  0  0  0  0  0  0
    8.3679   -1.8355    0.0000 O   0  0  0  0  0  0  0  0  0  0  0  0
    9.0713   -1.4044    0.0000 C   0  0  0  0  0  0  0  0  0  0  0  0
    6.2557   -2.3860    0.0000 C   0  0  0  0  0  0  0  0  0  0  0  0
    5.0781   -1.5767    0.0000 C   0  0  0  0  0  0  0  0  0  0  0  0
    1.0788    1.4038    0.0000 C   0  0  0  0  0  0  0  0  0  0  0  0
    1.1054    0.3674    0.0000 O   0  0  0  0  0  0  0  0  0  0  0  0
    0.5506   -0.2433    0.0000 C   0  0  0  0  0  0  0  0  0  0  0  0
  1  2  1  0  0  0  0
  2  3  1  0  0  0  0
  3  4  1  0  0  0  0
  4  5  1  0  0  0  0
  5  6  1  0  0  0  0
  6  7  1  0  0  0  0
  7  8  1  0  0  0  0
  8  9  2  0  0  0  0
  9 10  1  4  0  0  0
 10 11  2  0  0  0  0
 11 12  1  4  0  0  0
 12 13  2  0  0  0  0
 13 14  1  4  0  0  0
 14 15  1  0  0  0  0
 15 16  1  0  0  0  0
 16 17  1  0  0  0  0
 17 18  2  0  0  0  0
 17 19  1  0  0  0  0
 19 20  1  0  0  0  0
 20 21  1  0  0  0  0
 21 22  2  0  0  0  0
 22 23  1  4  0  0  0
 23 24  1  0  0  0  0
 24 25  2  0  0  0  0
 24 26  1  0  0  0  0
 26 27  1  0  0  0  0
 27 28  1  0  0  0  0
 28 29  1  0  0  0  0
 29 30  2  0  0  0  0
 29 31  1  0  0  0  0
 31 32  1  0  0  0  0
 32 33  1  0  0  0  0
 33 34  1  0  0  0  0
 34 35  1  0  0  0  0
 35 36  1  0  0  0  0
 31 36  1  0  0  0  0
 36 37  1  0  0  0  0
 37 38  2  0  0  0  0
 37 39  1  0  0  0  0
 39 40  2  0  0  0  0
 39 41  1  0  0  0  0
  2 41  1  0  0  0  0
 41 42  1  0  0  0  0
  5 42  1  0  0  0  0
 41 43  1  0  0  0  0
 27 44  1  0  0  0  0
 44 45  1  0  0  0  0
 44 46  1  0  0  0  0
 46 47  1  0  0  0  0
 47 48  1  0  0  0  0
 48 49  1  0  0  0  0
 49 50  1  0  0  0  0
 50 51  1  0  0  0  0
 51 52  1  0  0  0  0
 47 52  1  0  0  0  0
 51 53  1  0  0  0  0
 53 54  1  0  0  0  0
 50 55  1  0  0  0  0
 23 56  1  0  0  0  0
 21 57  1  0  0  0  0
 20 58  1  0  0  0  0
 19 59  1  0  0  0  0
 59 60  1  0  0  0  0
 16 61  1  0  0  0  0
 14 62  1  0  0  0  0
  8 63  1  0  0  0  0
  7 64  1  0  0  0  0
 64 65  1  0  0  0  0
M  END
>  <Name>
Rapamycin (Sirolimus)

>  <CAS>
53123-88-9

>  <Formula>
C51H79NO13

>  <MolWt>
914.18 

>  <Bioactivity>
Sirolimus is a mTOR Inhibitor Immunosuppressant. 

>  <Pathways>
PI3K/Akt/mTOR Signaling;Tyrosine Kinase/Adaptors

>  <Target>
mTOR inhibitor;FGFR inhibitor

>  <Receptor>
mTOR;FGFR 2;FKBP1A

>  <Reference>
1. Dowling RJ, et al. Biochim Biophys Acta. 2010 Mar;1804(3):433-9. 

$$$$
T1525
  Mrv1561503291623562D          

 50 53  0  0  1  0            999 V2000
   -1.0549    0.7158    0.0000 C   0  0  1  0  0  0  0  0  0  0  0  0
   -0.7270    1.4729    0.0000 C   0  0  0  0  0  0  0  0  0  0  0  0
   -1.2188    2.1354    0.0000 C   0  0  0  0  0  0  0  0  0  0  0  0
   -2.0383    2.0407    0.0000 C   0  0  0  0  0  0  0  0  0  0  0  0
   -2.5301    2.7032    0.0000 C   0  0  0  0  0  0  0  0  0  0  0  0
   -2.2022    3.4602    0.0000 C   0  0  0  0  0  0  0  0  0  0  0  0
   -1.3827    3.5549    0.0000 C   0  0  0  0  0  0  0  0  0  0  0  0
   -0.8910    2.8924    0.0000 C   0  0  0  0  0  0  0  0  0  0  0  0
   -1.8744    0.6212    0.0000 C   0  0  0  0  0  0  0  0  0  0  0  0
   -2.3662    1.2837    0.0000 C   0  0  1  0  0  0  0  0  0  0  0  0
   -3.1857    1.1890    0.0000 C   0  0  2  0  0  0  0  0  0  0  0  0
   -3.6774    1.8515    0.0000 C   0  0  0  0  0  0  0  0  0  0  0  0
   -4.4970    1.7568    0.0000 C   0  0  0  0  0  0  0  0  0  0  0  0
   -4.8248    0.9998    0.0000 C   0  0  0  0  0  0  0  0  0  0  0  0
   -5.6444    0.9051    0.0000 C   0  0  0  0  0  0  0  0  0  0  0  0
   -6.1361    1.5676    0.0000 C   0  0  0  0  0  0  0  0  0  0  0  0
   -5.8083    2.3246    0.0000 C   0  0  0  0  0  0  0  0  0  0  0  0
   -4.9887    2.4193    0.0000 C   0  0  0  0  0  0  0  0  0  0  0  0
   -3.5135    0.4319    0.0000 N   0  0  0  0  0  0  0  0  0  0  0  0
   -3.0218   -0.2305    0.0000 C   0  0  0  0  0  0  0  0  0  0  0  0
   -3.3496   -0.9876    0.0000 O   0  0  0  0  0  0  0  0  0  0  0  0
   -2.8579   -1.6500    0.0000 C   0  0  0  0  0  0  0  0  0  0  0  0
   -3.1857   -2.4071    0.0000 C   0  0  0  0  0  0  0  0  0  0  0  0
   -2.7659   -3.1173    0.0000 C   0  0  0  0  0  0  0  0  0  0  0  0
   -3.3116   -3.7360    0.0000 N   0  0  0  0  0  0  0  0  0  0  0  0
   -4.0687   -3.4082    0.0000 C   0  0  0  0  0  0  0  0  0  0  0  0
   -3.9909   -2.5869    0.0000 S   0  0  0  0  0  0  0  0  0  0  0  0
   -2.2022   -0.1359    0.0000 O   0  0  0  0  0  0  0  0  0  0  0  0
   -2.5459    2.0888    0.0000 O   0  0  0  0  0  0  0  0  0  0  0  0
   -0.5631    0.0534    0.0000 N   0  0  0  0  0  0  0  0  0  0  0  0
    0.2564    0.1480    0.0000 C   0  0  0  0  0  0  0  0  0  0  0  0
    0.7482   -0.5144    0.0000 C   0  0  1  0  0  0  0  0  0  0  0  0
    1.5677   -0.4198    0.0000 N   0  0  0  0  0  0  0  0  0  0  0  0
    2.0594   -1.0822    0.0000 C   0  0  0  0  0  0  0  0  0  0  0  0
    2.8790   -0.9876    0.0000 N   0  0  0  0  0  0  0  0  0  0  0  0
    3.3707   -1.6500    0.0000 C   0  0  0  0  0  0  0  0  0  0  0  0
    4.1903   -1.5554    0.0000 C   0  0  0  0  0  0  0  0  0  0  0  0
    4.5954   -0.8367    0.0000 C   0  0  0  0  0  0  0  0  0  0  0  0
    5.4041   -1.0000    0.0000 S   0  0  0  0  0  0  0  0  0  0  0  0
    5.4988   -1.8195    0.0000 C   0  0  0  0  0  0  0  0  0  0  0  0
    4.7486   -2.1628    0.0000 N   0  0  0  0  0  0  0  0  0  0  0  0
    6.2174   -2.2247    0.0000 C   0  0  0  0  0  0  0  0  0  0  0  0
    6.9276   -1.8049    0.0000 C   0  0  0  0  0  0  0  0  0  0  0  0
    6.2259   -3.0496    0.0000 C   0  0  0  0  0  0  0  0  0  0  0  0
    3.2068   -0.2305    0.0000 C   0  0  0  0  0  0  0  0  0  0  0  0
    1.7316   -1.8393    0.0000 O   0  0  0  0  0  0  0  0  0  0  0  0
    0.4203   -1.2715    0.0000 C   0  0  0  0  0  0  0  0  0  0  0  0
    0.9121   -1.9339    0.0000 C   0  0  0  0  0  0  0  0  0  0  0  0
   -0.3992   -1.3661    0.0000 C   0  0  0  0  0  0  0  0  0  0  0  0
    0.5842    0.9051    0.0000 O   0  0  0  0  0  0  0  0  0  0  0  0
  1  2  1  0  0  0  0
  2  3  1  0  0  0  0
  3  4  2  0  0  0  0
  4  5  1  0  0  0  0
  5  6  2  0  0  0  0
  6  7  1  0  0  0  0
  7  8  2  0  0  0  0
  3  8  1  0  0  0  0
  1  9  1  0  0  0  0
  9 10  1  0  0  0  0
 10 11  1  0  0  0  0
 11 12  1  0  0  0  0
 12 13  1  0  0  0  0
 13 14  2  0  0  0  0
 14 15  1  0  0  0  0
 15 16  2  0  0  0  0
 16 17  1  0  0  0  0
 17 18  2  0  0  0  0
 13 18  1  0  0  0  0
 11 19  1  1  0  0  0
 19 20  1  0  0  0  0
 20 21  1  0  0  0  0
 21 22  1  0  0  0  0
 22 23  1  0  0  0  0
 23 24  2  0  0  0  0
 24 25  1  0  0  0  0
 25 26  2  0  0  0  0
 26 27  1  0  0  0  0
 23 27  1  0  0  0  0
 20 28  2  0  0  0  0
 10 29  1  1  0  0  0
  1 30  1  6  0  0  0
 30 31  1  0  0  0  0
 31 32  1  0  0  0  0
 32 33  1  1  0  0  0
 33 34  1  0  0  0  0
 34 35  1  0  0  0  0
 35 36  1  0  0  0  0
 36 37  1  0  0  0  0
 37 38  2  0  0  0  0
 38 39  1  0  0  0  0
 39 40  1  0  0  0  0
 40 41  2  0  0  0  0
 37 41  1  0  0  0  0
 40 42  1  0  0  0  0
 42 43  1  0  0  0  0
 42 44  1  0  0  0  0
 35 45  1  0  0  0  0
 34 46  2  0  0  0  0
 32 47  1  0  0  0  0
 47 48  1  0  0  0  0
 47 49  1  0  0  0  0
 31 50  2  0  0  0  0
M  END
>  <Name>
Ritonavir

>  <CAS>
155213-67-5

>  <Formula>
C37H48N6O5S2

>  <MolWt>
720.96 

>  <Bioactivity>
Ritonavir is an antiretroviral (HIV) drug which inhibits a particular liver enzyme that normally metabolizes protease inhibitors, cytochrome P450-3A4 (CYP3A4).

>  <Pathways>
Proteases/Proteasome; Microbiology & Virology

>  <Target>
HIV Protease inhibitor

>  <Receptor>
HIV Protease

>  <Reference>
1. Garriga C, et al. J Med Virol. 2007 Nov; 79(11):1617-28. 

$$$$
133454-47-4
  Mrv1561503291623562D          

 31 34  0  0  0  0            999 V2000
    3.2789    1.2375    0.0000 C   0  0  0  0  0  0  0  0  0  0  0  0
    3.9934    0.8250    0.0000 C   0  0  0  0  0  0  0  0  0  0  0  0
    3.9934    0.0000    0.0000 C   0  0  0  0  0  0  0  0  0  0  0  0
    3.2789   -0.4125    0.0000 C   0  0  0  0  0  0  0  0  0  0  0  0
    2.5645   -0.0000    0.0000 C   0  0  0  0  0  0  0  0  0  0  0  0
    2.5645    0.8250    0.0000 C   0  0  0  0  0  0  0  0  0  0  0  0
    1.7798    1.0799    0.0000 C   0  0  0  0  0  0  0  0  0  0  0  0
    1.2949    0.4125    0.0000 N   0  0  0  0  0  0  0  0  0  0  0  0
    1.7798   -0.2549    0.0000 O   0  0  0  0  0  0  0  0  0  0  0  0
    1.5249    1.8646    0.0000 C   0  0  0  0  0  0  0  0  0  0  0  0
    0.7179    2.0361    0.0000 C   0  0  0  0  0  0  0  0  0  0  0  0
    0.4630    2.8207    0.0000 C   0  0  0  0  0  0  0  0  0  0  0  0
    1.0150    3.4338    0.0000 N   0  0  0  0  0  0  0  0  0  0  0  0
    0.7601    4.2184    0.0000 C   0  0  0  0  0  0  0  0  0  0  0  0
    1.3121    4.8315    0.0000 C   0  0  0  0  0  0  0  0  0  0  0  0
    1.0572    5.6161    0.0000 C   0  0  0  0  0  0  0  0  0  0  0  0
    1.6092    6.2292    0.0000 O   0  0  0  0  0  0  0  0  0  0  0  0
    1.3543    7.0139    0.0000 C   0  0  0  0  0  0  0  0  0  0  0  0
    0.5473    7.1854    0.0000 C   0  0  0  0  0  0  0  0  0  0  0  0
    0.2924    7.9700    0.0000 C   0  0  0  0  0  0  0  0  0  0  0  0
    0.8444    8.5831    0.0000 C   0  0  0  0  0  0  0  0  0  0  0  0
    0.5894    9.3677    0.0000 C   0  0  0  0  0  0  0  0  0  0  0  0
   -0.2175    9.5392    0.0000 C   0  0  0  0  0  0  0  0  0  0  0  0
    1.1415    9.9808    0.0000 O   0  0  0  0  0  0  0  0  0  0  0  0
    1.6514    8.4116    0.0000 C   0  0  0  0  0  0  0  0  0  0  0  0
    1.9063    7.6270    0.0000 C   0  0  0  0  0  0  0  0  0  0  0  0
   -0.0047    6.5723    0.0000 O   0  0  0  0  0  0  0  0  0  0  0  0
   -0.8117    6.7438    0.0000 C   0  0  0  0  0  0  0  0  0  0  0  0
    1.8220    3.2623    0.0000 C   0  0  0  0  0  0  0  0  0  0  0  0
    2.0769    2.4777    0.0000 C   0  0  0  0  0  0  0  0  0  0  0  0
    4.7079   -0.4125    0.0000 F   0  0  0  0  0  0  0  0  0  0  0  0
  1  2  2  0  0  0  0
  2  3  1  0  0  0  0
  3  4  2  0  0  0  0
  4  5  1  0  0  0  0
  5  6  2  0  0  0  0
  1  6  1  0  0  0  0
  6  7  1  0  0  0  0
  7  8  2  0  0  0  0
  8  9  1  0  0  0  0
  5  9  1  0  0  0  0
  7 10  1  0  0  0  0
 10 11  1  0  0  0  0
 11 12  1  0  0  0  0
 12 13  1  0  0  0  0
 13 14  1  0  0  0  0
 14 15  1  0  0  0  0
 15 16  1  0  0  0  0
 16 17  1  0  0  0  0
 17 18  1  0  0  0  0
 18 19  2  0  0  0  0
 19 20  1  0  0  0  0
 20 21  2  0  0  0  0
 21 22  1  0  0  0  0
 22 23  1  0  0  0  0
 22 24  2  0  0  0  0
 21 25  1  0  0  0  0
 25 26  2  0  0  0  0
 18 26  1  0  0  0  0
 19 27  1  0  0  0  0
 27 28  1  0  0  0  0
 13 29  1  0  0  0  0
 29 30  1  0  0  0  0
 10 30  1  0  0  0  0
  3 31  1  0  0  0  0
M  END
>  <Name>
Iloperidone

>  <CAS>
133454-47-4

>  <Formula>
C24H27FN2O4

>  <MolWt>
426.48 

>  <Bioactivity>
Iloperidone is an atypical antipsychotic for the treatment of schizophrenia symptoms. Hoechst Marion Roussel Inc. made initial inquiries into the drug; however, in May 1996, they discontinued research, and in June 1997 gave research rights to Titan Pharmaceuticals. Titan then handed over worldwide development, manufacturing and marketing rights to Novartis in August 1998. On June 9, 2004, Titan Pharmaceuticals announced that the Phase III development rights have been acquired by Vanda Pharmaceuticals. FDA approved on May 9, 2009. 

>  <Pathways>
Neuroscience;GPCR/G protein

>  <Target>
Adrenergic Receptor agonist ;Dopamine Receptor antagonist

>  <Receptor>
?-adrenergic receptor;Dopamine receptor

>  <Reference>
1. George M, et al. Eur J Clin Pharmacol. 2013 Apr 2.

$$$$
T1665
  Mrv1561503291623562D          

115118  0  0  1  0            999 V2000
   -5.7233    1.8118    0.0000 C   0  0  1  0  0  0  0  0  0  0  0  0
   -6.4759    2.1497    0.0000 N   0  0  0  0  0  0  0  0  0  0  0  0
   -7.1448    1.6669    0.0000 C   0  0  0  0  0  0  0  0  0  0  0  0
   -7.0612    0.8462    0.0000 O   0  0  0  0  0  0  0  0  0  0  0  0
   -7.8974    2.0049    0.0000 C   0  0  0  0  0  0  0  0  0  0  0  0
   -8.5664    1.5221    0.0000 C   0  0  0  0  0  0  0  0  0  0  0  0
   -9.3190    1.8601    0.0000 C   0  0  0  0  0  0  0  0  0  0  0  0
   -9.9880    1.3773    0.0000 C   0  0  0  0  0  0  0  0  0  0  0  0
  -10.7406    1.7152    0.0000 C   0  0  0  0  0  0  0  0  0  0  0  0
  -11.4096    1.2324    0.0000 C   0  0  0  0  0  0  0  0  0  0  0  0
  -12.1622    1.5704    0.0000 C   0  0  0  0  0  0  0  0  0  0  0  0
  -12.8312    1.0876    0.0000 C   0  0  0  0  0  0  0  0  0  0  0  0
  -13.5838    1.4256    0.0000 C   0  0  0  0  0  0  0  0  0  0  0  0
   -5.6396    0.9910    0.0000 C   0  0  0  0  0  0  0  0  0  0  0  0
   -4.8870    0.6531    0.0000 C   0  0  0  0  0  0  0  0  0  0  0  0
   -4.1712    1.0633    0.0000 C   0  0  0  0  0  0  0  0  0  0  0  0
   -3.5599    0.5093    0.0000 N   0  0  0  0  0  0  0  0  0  0  0  0
   -3.8979   -0.2433    0.0000 C   0  0  0  0  0  0  0  0  0  0  0  0
   -4.7181   -0.1544    0.0000 C   0  0  0  0  0  0  0  0  0  0  0  0
   -5.2051   -0.8203    0.0000 C   0  0  0  0  0  0  0  0  0  0  0  0
   -4.8720   -1.5751    0.0000 C   0  0  0  0  0  0  0  0  0  0  0  0
   -4.0518   -1.6639    0.0000 C   0  0  0  0  0  0  0  0  0  0  0  0
   -3.5647   -0.9980    0.0000 C   0  0  0  0  0  0  0  0  0  0  0  0
   -5.0543    2.2946    0.0000 C   0  0  0  0  0  0  0  0  0  0  0  0
   -5.1379    3.1153    0.0000 O   0  0  0  0  0  0  0  0  0  0  0  0
   -4.3017    1.9566    0.0000 N   0  0  0  0  0  0  0  0  0  0  0  0
   -3.6327    2.4394    0.0000 C   0  0  2  0  0  0  0  0  0  0  0  0
   -2.8801    2.1015    0.0000 C   0  0  0  0  0  0  0  0  0  0  0  0
   -2.7965    1.2807    0.0000 O   0  0  0  0  0  0  0  0  0  0  0  0
   -2.2111    2.5843    0.0000 N   0  0  0  0  0  0  0  0  0  0  0  0
   -1.4585    2.2463    0.0000 C   0  0  2  0  0  0  0  0  0  0  0  0
   -0.7895    2.7291    0.0000 C   0  0  0  0  0  0  0  0  0  0  0  0
   -0.8731    3.5498    0.0000 O   0  0  0  0  0  0  0  0  0  0  0  0
   -0.0369    2.3911    0.0000 N   0  0  0  0  0  0  0  0  0  0  0  0
    0.6321    2.8739    0.0000 C   0  0  0  0  0  0  0  0  0  0  0  0
   -0.0484    3.3403    0.0000 C   0  0  0  0  0  0  0  0  0  0  0  0
    0.1849    4.1317    0.0000 O   0  0  0  0  0  0  0  0  0  0  0  0
    1.0095    4.1543    0.0000 C   0  0  0  0  0  0  0  0  0  0  0  0
    1.3096    3.3858    0.0000 O   0  0  0  0  0  0  0  0  0  0  0  0
    1.6900    4.7476    0.0000 C   0  0  1  0  0  0  0  0  0  0  0  0
    2.4813    4.5143    0.0000 N   0  0  0  0  0  0  0  0  0  0  0  0
    3.0791    5.0829    0.0000 C   0  0  0  0  0  0  0  0  0  0  0  0
    2.8854    5.8849    0.0000 O   0  0  0  0  0  0  0  0  0  0  0  0
    3.8704    4.8496    0.0000 C   0  0  1  0  0  0  0  0  0  0  0  0
    4.4681    5.4183    0.0000 N   0  0  0  0  0  0  0  0  0  0  0  0
    5.2594    5.1850    0.0000 C   0  0  0  0  0  0  0  0  0  0  0  0
    5.4530    4.3830    0.0000 O   0  0  0  0  0  0  0  0  0  0  0  0
    5.8571    5.7536    0.0000 C   0  0  2  0  0  0  0  0  0  0  0  0
    6.6484    5.5203    0.0000 N   0  0  0  0  0  0  0  0  0  0  0  0
    7.2462    6.0890    0.0000 C   0  0  0  0  0  0  0  0  0  0  0  0
    7.0525    6.8910    0.0000 O   0  0  0  0  0  0  0  0  0  0  0  0
    8.0375    5.8557    0.0000 C   0  0  0  0  0  0  0  0  0  0  0  0
    8.6352    6.4243    0.0000 N   0  0  0  0  0  0  0  0  0  0  0  0
    9.4265    6.1910    0.0000 C   0  0  0  0  0  0  0  0  0  0  0  0
   10.0242    6.7597    0.0000 O   0  0  0  0  0  0  0  0  0  0  0  0
    9.6201    5.3891    0.0000 C   0  0  1  0  0  0  0  0  0  0  0  0
    9.0224    4.8204    0.0000 N   0  0  0  0  0  0  0  0  0  0  0  0
    9.2160    4.0185    0.0000 C   0  0  0  0  0  0  0  0  0  0  0  0
   10.0074    3.7852    0.0000 O   0  0  0  0  0  0  0  0  0  0  0  0
    8.6183    3.4498    0.0000 C   0  0  2  0  0  0  0  0  0  0  0  0
    7.8270    3.6831    0.0000 N   0  0  0  0  0  0  0  0  0  0  0  0
    7.2293    3.1145    0.0000 C   0  0  0  0  0  0  0  0  0  0  0  0
    7.4229    2.3125    0.0000 O   0  0  0  0  0  0  0  0  0  0  0  0
    6.4380    3.3478    0.0000 C   0  0  1  0  0  0  0  0  0  0  0  0
    5.8403    2.7791    0.0000 N   0  0  0  0  0  0  0  0  0  0  0  0
    5.0489    3.0124    0.0000 C   0  0  0  0  0  0  0  0  0  0  0  0
    4.8553    3.8144    0.0000 O   0  0  0  0  0  0  0  0  0  0  0  0
    4.4512    2.4438    0.0000 C   0  0  1  0  0  0  0  0  0  0  0  0
    3.6599    2.6771    0.0000 N   0  0  0  0  0  0  0  0  0  0  0  0
    3.0622    2.1084    0.0000 C   0  0  0  0  0  0  0  0  0  0  0  0
    3.2558    1.3065    0.0000 O   0  0  0  0  0  0  0  0  0  0  0  0
    2.2709    2.3417    0.0000 C   0  0  0  0  0  0  0  0  0  0  0  0
    1.6732    1.7731    0.0000 N   0  0  0  0  0  0  0  0  0  0  0  0
    0.8818    2.0064    0.0000 C   0  0  0  0  0  0  0  0  0  0  0  0
    0.2966    1.4249    0.0000 O   0  0  0  0  0  0  0  0  0  0  0  0
    4.6448    1.6418    0.0000 C   0  0  0  0  0  0  0  0  0  0  0  0
    4.0471    1.0731    0.0000 C   0  0  0  0  0  0  0  0  0  0  0  0
    4.2407    0.2712    0.0000 C   0  0  0  0  0  0  0  0  0  0  0  0
    3.6430   -0.2975    0.0000 N   0  0  0  0  0  0  0  0  0  0  0  0
    6.6316    2.5458    0.0000 C   0  0  0  0  0  0  0  0  0  0  0  0
    6.0339    1.9772    0.0000 C   0  0  0  0  0  0  0  0  0  0  0  0
    6.2275    1.1752    0.0000 O   0  0  0  0  0  0  0  0  0  0  0  0
    5.2425    2.2105    0.0000 O   0  0  0  0  0  0  0  0  0  0  0  0
    8.8119    2.6478    0.0000 C   0  0  0  0  0  0  0  0  0  0  0  0
   10.4115    5.1558    0.0000 C   0  0  0  0  0  0  0  0  0  0  0  0
   11.0092    5.7244    0.0000 C   0  0  0  0  0  0  0  0  0  0  0  0
   10.8156    6.5264    0.0000 O   0  0  0  0  0  0  0  0  0  0  0  0
   11.8005    5.4911    0.0000 O   0  0  0  0  0  0  0  0  0  0  0  0
    5.6635    6.5556    0.0000 C   0  0  0  0  0  0  0  0  0  0  0  0
    6.2612    7.1243    0.0000 O   0  0  0  0  0  0  0  0  0  0  0  0
    3.6768    5.6516    0.0000 C   0  0  0  0  0  0  0  0  0  0  0  0
    4.2745    6.2203    0.0000 C   0  0  0  0  0  0  0  0  0  0  0  0
    4.0809    7.0222    0.0000 C   0  0  0  0  0  0  0  0  0  0  0  0
    3.2895    7.2555    0.0000 O   0  0  0  0  0  0  0  0  0  0  0  0
    4.6786    7.5909    0.0000 O   0  0  0  0  0  0  0  0  0  0  0  0
    3.1737    6.3055    0.0000 C   0  0  0  0  0  0  0  0  0  0  0  0
    1.5139    5.5536    0.0000 C   0  0  0  0  0  0  0  0  0  0  0  0
    0.7278    5.8040    0.0000 C   0  0  0  0  0  0  0  0  0  0  0  0
    0.1179    5.2485    0.0000 O   0  0  0  0  0  0  0  0  0  0  0  0
    0.5516    6.6100    0.0000 C   0  0  0  0  0  0  0  0  0  0  0  0
   -0.2344    6.8604    0.0000 C   0  0  0  0  0  0  0  0  0  0  0  0
   -0.4106    7.6664    0.0000 C   0  0  0  0  0  0  0  0  0  0  0  0
    0.1993    8.2219    0.0000 C   0  0  0  0  0  0  0  0  0  0  0  0
    0.9854    7.9715    0.0000 C   0  0  0  0  0  0  0  0  0  0  0  0
    1.1616    7.1655    0.0000 C   0  0  0  0  0  0  0  0  0  0  0  0
    1.9476    6.9151    0.0000 N   0  0  0  0  0  0  0  0  0  0  0  0
   -0.7290    3.8068    0.0000 C   0  0  0  0  0  0  0  0  0  0  0  0
   -1.3749    1.4256    0.0000 C   0  0  0  0  0  0  0  0  0  0  0  0
   -0.6223    1.0876    0.0000 C   0  0  0  0  0  0  0  0  0  0  0  0
    0.0467    1.5704    0.0000 O   0  0  0  0  0  0  0  0  0  0  0  0
   -0.5387    0.2668    0.0000 O   0  0  0  0  0  0  0  0  0  0  0  0
   -3.7163    3.2602    0.0000 C   0  0  0  0  0  0  0  0  0  0  0  0
   -3.0473    3.7430    0.0000 C   0  0  0  0  0  0  0  0  0  0  0  0
   -3.1310    4.5637    0.0000 O   0  0  0  0  0  0  0  0  0  0  0  0
   -2.2947    3.4050    0.0000 N   0  0  0  0  0  0  0  0  0  0  0  0
  1  2  1  6  0  0  0
  2  3  1  0  0  0  0
  3  4  2  0  0  0  0
  3  5  1  0  0  0  0
  5  6  1  0  0  0  0
  6  7  1  0  0  0  0
  7  8  1  0  0  0  0
  8  9  1  0  0  0  0
  9 10  1  0  0  0  0
 10 11  1  0  0  0  0
 11 12  1  0  0  0  0
 12 13  1  0  0  0  0
  1 14  1  0  0  0  0
 14 15  1  0  0  0  0
 15 16  2  0  0  0  0
 16 17  1  0  0  0  0
 17 18  1  0  0  0  0
 18 19  2  0  0  0  0
 15 19  1  0  0  0  0
 19 20  1  0  0  0  0
 20 21  2  0  0  0  0
 21 22  1  0  0  0  0
 22 23  2  0  0  0  0
 18 23  1  0  0  0  0
  1 24  1  0  0  0  0
 24 25  2  0  0  0  0
 24 26  1  0  0  0  0
 27 26  1  1  0  0  0
 27 28  1  0  0  0  0
 28 29  2  0  0  0  0
 28 30  1  0  0  0  0
 31 30  1  6  0  0  0
 31 32  1  0  0  0  0
 32 33  2  0  0  0  0
 32 34  1  0  0  0  0
 34 35  1  0  0  0  0
 35 36  1  0  0  0  0
 36 37  1  0  0  0  0
 37 38  1  0  0  0  0
 38 39  2  0  0  0  0
 38 40  1  0  0  0  0
 40 41  1  0  0  0  0
 41 42  1  0  0  0  0
 42 43  2  0  0  0  0
 42 44  1  0  0  0  0
 44 45  1  0  0  0  0
 45 46  1  0  0  0  0
 46 47  2  0  0  0  0
 46 48  1  0  0  0  0
 48 49  1  0  0  0  0
 49 50  1  0  0  0  0
 50 51  2  0  0  0  0
 50 52  1  0  0  0  0
 52 53  1  0  0  0  0
 53 54  1  0  0  0  0
 54 55  2  0  0  0  0
 54 56  1  0  0  0  0
 56 57  1  0  0  0  0
 57 58  1  0  0  0  0
 58 59  2  0  0  0  0
 58 60  1  0  0  0  0
 60 61  1  0  0  0  0
 61 62  1  0  0  0  0
 62 63  2  0  0  0  0
 62 64  1  0  0  0  0
 64 65  1  0  0  0  0
 65 66  1  0  0  0  0
 66 67  2  0  0  0  0
 66 68  1  0  0  0  0
 68 69  1  0  0  0  0
 69 70  1  0  0  0  0
 70 71  2  0  0  0  0
 70 72  1  0  0  0  0
 72 73  1  0  0  0  0
 73 74  1  0  0  0  0
 35 74  1  0  0  0  0
 74 75  2  0  0  0  0
 68 76  1  6  0  0  0
 76 77  1  0  0  0  0
 77 78  1  0  0  0  0
 78 79  1  0  0  0  0
 64 80  1  1  0  0  0
 80 81  1  0  0  0  0
 81 82  2  0  0  0  0
 81 83  1  0  0  0  0
 60 84  1  1  0  0  0
 56 85  1  6  0  0  0
 85 86  1  0  0  0  0
 86 87  2  0  0  0  0
 86 88  1  0  0  0  0
 48 89  1  1  0  0  0
 89 90  1  0  0  0  0
 44 91  1  1  0  0  0
 91 92  1  0  0  0  0
 92 93  1  0  0  0  0
 93 94  2  0  0  0  0
 93 95  1  0  0  0  0
 91 96  1  0  0  0  0
 40 97  1  6  0  0  0
 97 98  1  0  0  0  0
 98 99  2  0  0  0  0
 98100  1  0  0  0  0
100101  2  0  0  0  0
101102  1  0  0  0  0
102103  2  0  0  0  0
103104  1  0  0  0  0
104105  2  0  0  0  0
100105  1  0  0  0  0
105106  1  0  0  0  0
 36107  1  0  0  0  0
 31108  1  0  0  0  0
108109  1  0  0  0  0
109110  2  0  0  0  0
109111  1  0  0  0  0
 27112  1  0  0  0  0
112113  1  0  0  0  0
113114  2  0  0  0  0
113115  1  0  0  0  0
M  END
>  <Name>
Daptomycin

>  <CAS>
103060-53-3

>  <Formula>
C72H101N17O26

>  <MolWt>
1620.68 

>  <Bioactivity>
Daptomycin is a novel antibiotic with rapid in vitro bactericidal activity against gram-positive organisms.

>  <Pathways>
DNA Damage/DNA Repair;Microbiology & Virology

>  <Target>
Antibiotic; DNA/RNA Synthesis inhibitor

>  <Receptor>
DNA synthesis

>  <Reference>
1. Silverman JA, et al. Antimicrob Agents Chemother, 2003, 47(8), 2538-2544.

$$$$
89778-26-7
  Mrv1561503291623562D          

 29 31  0  0  0  0            999 V2000
   -5.7158   -2.4750    0.0000 C   0  0  0  0  0  0  0  0  0  0  0  0
   -5.0013   -2.0625    0.0000 C   0  0  0  0  0  0  0  0  0  0  0  0
   -4.2868   -2.4750    0.0000 C   0  0  0  0  0  0  0  0  0  0  0  0
   -4.2868   -3.3000    0.0000 C   0  0  0  0  0  0  0  0  0  0  0  0
   -5.0013   -3.7125    0.0000 C   0  0  0  0  0  0  0  0  0  0  0  0
   -5.7158   -3.3000    0.0000 C   0  0  0  0  0  0  0  0  0  0  0  0
   -6.4302   -3.7125    0.0000 C   0  0  0  0  0  0  0  0  0  0  0  0
   -7.1447   -3.3000    0.0000 C   0  0  0  0  0  0  0  0  0  0  0  0
   -7.1447   -2.4750    0.0000 C   0  0  0  0  0  0  0  0  0  0  0  0
   -7.8592   -2.0625    0.0000 C   0  0  0  0  0  0  0  0  0  0  0  0
   -7.8592   -1.2375    0.0000 C   0  0  0  0  0  0  0  0  0  0  0  0
   -7.1447   -0.8250    0.0000 C   0  0  0  0  0  0  0  0  0  0  0  0
   -6.4302   -1.2375    0.0000 C   0  0  0  0  0  0  0  0  0  0  0  0
   -6.4302   -2.0625    0.0000 C   0  0  0  0  0  0  0  0  0  0  0  0
   -7.8592   -3.7125    0.0000 C   0  0  0  0  0  0  0  0  0  0  0  0
   -7.8592   -4.5375    0.0000 C   0  0  0  0  0  0  0  0  0  0  0  0
   -8.5737   -4.9500    0.0000 Cl  0  0  0  0  0  0  0  0  0  0  0  0
   -6.4302   -4.5375    0.0000 C   0  0  0  0  0  0  0  0  0  0  0  0
   -5.7158   -4.9500    0.0000 C   0  0  0  0  0  0  0  0  0  0  0  0
   -5.7158   -5.7750    0.0000 C   0  0  0  0  0  0  0  0  0  0  0  0
   -6.4302   -6.1875    0.0000 C   0  0  0  0  0  0  0  0  0  0  0  0
   -7.1447   -5.7750    0.0000 C   0  0  0  0  0  0  0  0  0  0  0  0
   -7.1447   -4.9500    0.0000 C   0  0  0  0  0  0  0  0  0  0  0  0
   -3.5724   -2.0625    0.0000 O   0  0  0  0  0  0  0  0  0  0  0  0
   -2.8579   -2.4750    0.0000 C   0  0  0  0  0  0  0  0  0  0  0  0
   -2.1434   -2.0625    0.0000 C   0  0  0  0  0  0  0  0  0  0  0  0
   -1.4289   -2.4750    0.0000 N   0  0  0  0  0  0  0  0  0  0  0  0
   -0.7145   -2.0625    0.0000 C   0  0  0  0  0  0  0  0  0  0  0  0
   -1.4289   -3.3000    0.0000 C   0  0  0  0  0  0  0  0  0  0  0  0
  1  2  2  0  0  0  0
  2  3  1  0  0  0  0
  3  4  2  0  0  0  0
  4  5  1  0  0  0  0
  5  6  2  0  0  0  0
  1  6  1  0  0  0  0
  6  7  1  0  0  0  0
  7  8  2  0  0  0  0
  8  9  1  0  0  0  0
  9 10  2  0  0  0  0
 10 11  1  0  0  0  0
 11 12  2  0  0  0  0
 12 13  1  0  0  0  0
 13 14  2  0  0  0  0
  9 14  1  0  0  0  0
  8 15  1  0  0  0  0
 15 16  1  0  0  0  0
 16 17  1  0  0  0  0
  7 18  1  0  0  0  0
 18 19  2  0  0  0  0
 19 20  1  0  0  0  0
 20 21  2  0  0  0  0
 21 22  1  0  0  0  0
 22 23  2  0  0  0  0
 18 23  1  0  0  0  0
  3 24  1  0  0  0  0
 24 25  1  0  0  0  0
 25 26  1  0  0  0  0
 26 27  1  0  0  0  0
 27 28  1  0  0  0  0
 27 29  1  0  0  0  0
M  END
>  <Name>
Toremifene

>  <CAS>
89778-26-7

>  <Formula>
C26H28ClNO

>  <MolWt>
405.96 

>  <Bioactivity>
Toremifene Citrate is an oral selective estrogen receptor modulator (SERM) which helps oppose the actions of estrogen in the body.

>  <Pathways>
Endocrinology/ Hormones

>  <Target>
Estrogen/Progestogen Receptor modulator

>  <Receptor>
Estrogen Receptor

>  <Reference>
1. Locci P, et al. J Interferon Cytokine Res. 2001 Nov;21(11):961-70. 

$$$$
T1518
  Mrv1561503291623562D          

 41 45  0  0  0  0            999 V2000
    3.4656   -2.9491    0.0000 C   0  0  0  0  0  0  0  0  0  0  0  0
    2.7512   -2.5366    0.0000 C   0  0  0  0  0  0  0  0  0  0  0  0
    2.0367   -2.9491    0.0000 C   0  0  0  0  0  0  0  0  0  0  0  0
    2.0367   -3.7741    0.0000 N   0  0  0  0  0  0  0  0  0  0  0  0
    1.3693   -4.2590    0.0000 C   0  0  0  0  0  0  0  0  0  0  0  0
    1.6242   -5.0437    0.0000 C   0  0  0  0  0  0  0  0  0  0  0  0
    2.4492   -5.0437    0.0000 N   0  0  0  0  0  0  0  0  0  0  0  0
    2.7041   -4.2590    0.0000 C   0  0  0  0  0  0  0  0  0  0  0  0
    3.4888   -4.0041    0.0000 C   0  0  0  0  0  0  0  0  0  0  0  0
    4.1019   -4.5561    0.0000 C   0  0  0  0  0  0  0  0  0  0  0  0
    4.8865   -4.3012    0.0000 C   0  0  0  0  0  0  0  0  0  0  0  0
    1.1393   -5.7111    0.0000 C   0  0  0  0  0  0  0  0  0  0  0  0
    0.6544   -6.3785    0.0000 O   0  0  0  0  0  0  0  0  0  0  0  0
    1.8067   -6.1960    0.0000 C   0  0  0  0  0  0  0  0  0  0  0  0
    0.4718   -5.2262    0.0000 C   0  0  0  0  0  0  0  0  0  0  0  0
    0.5846   -4.0041    0.0000 C   0  0  0  0  0  0  0  0  0  0  0  0
    0.4131   -3.1971    0.0000 O   0  0  0  0  0  0  0  0  0  0  0  0
    1.0262   -2.6451    0.0000 C   0  0  0  0  0  0  0  0  0  0  0  0
    0.8547   -1.8381    0.0000 C   0  0  0  0  0  0  0  0  0  0  0  0
    0.1010   -1.5026    0.0000 C   0  0  0  0  0  0  0  0  0  0  0  0
    0.1872   -0.6821    0.0000 O   0  0  0  0  0  0  0  0  0  0  0  0
    0.9942   -0.5105    0.0000 C   0  0  0  0  0  0  0  0  0  0  0  0
    1.4067   -1.2250    0.0000 O   0  0  0  0  0  0  0  0  0  0  0  0
    1.3298    0.2431    0.0000 O   0  0  0  0  0  0  0  0  0  0  0  0
   -0.6135   -1.9151    0.0000 C   0  0  0  0  0  0  0  0  0  0  0  0
   -0.0284   -4.5561    0.0000 O   0  0  0  0  0  0  0  0  0  0  0  0
    2.7512   -1.7116    0.0000 C   0  0  0  0  0  0  0  0  0  0  0  0
    3.4656   -1.2991    0.0000 C   0  0  0  0  0  0  0  0  0  0  0  0
    4.1801   -1.7116    0.0000 C   0  0  0  0  0  0  0  0  0  0  0  0
    4.1801   -2.5366    0.0000 C   0  0  0  0  0  0  0  0  0  0  0  0
    4.8946   -1.2991    0.0000 C   0  0  0  0  0  0  0  0  0  0  0  0
    4.8946   -0.4741    0.0000 C   0  0  0  0  0  0  0  0  0  0  0  0
    4.1801   -0.0616    0.0000 C   0  0  0  0  0  0  0  0  0  0  0  0
    3.4264   -0.3972    0.0000 N   0  0  0  0  0  0  0  0  0  0  0  0
    2.8744    0.2159    0.0000 N   0  0  0  0  0  0  0  0  0  0  0  0
    3.2869    0.9304    0.0000 N   0  0  0  0  0  0  0  0  0  0  0  0
    4.0939    0.7589    0.0000 N   0  0  0  0  0  0  0  0  0  0  0  0
    5.6091   -0.0616    0.0000 C   0  0  0  0  0  0  0  0  0  0  0  0
    6.3235   -0.4741    0.0000 C   0  0  0  0  0  0  0  0  0  0  0  0
    6.3235   -1.2991    0.0000 C   0  0  0  0  0  0  0  0  0  0  0  0
    5.6091   -1.7116    0.0000 C   0  0  0  0  0  0  0  0  0  0  0  0
  1  2  2  0  0  0  0
  2  3  1  0  0  0  0
  3  4  1  0  0  0  0
  4  5  1  0  0  0  0
  5  6  2  0  0  0  0
  6  7  1  0  0  0  0
  7  8  2  0  0  0  0
  4  8  1  0  0  0  0
  8  9  1  0  0  0  0
  9 10  1  0  0  0  0
 10 11  1  0  0  0  0
  6 12  1  0  0  0  0
 12 13  1  0  0  0  0
 12 14  1  0  0  0  0
 12 15  1  0  0  0  0
  5 16  1  0  0  0  0
 16 17  1  0  0  0  0
 17 18  1  0  0  0  0
 18 19  1  0  0  0  0
 19 20  2  0  0  0  0
 20 21  1  0  0  0  0
 21 22  1  0  0  0  0
 22 23  1  0  0  0  0
 19 23  1  0  0  0  0
 22 24  2  0  0  0  0
 20 25  1  0  0  0  0
 16 26  2  0  0  0  0
  2 27  1  0  0  0  0
 27 28  2  0  0  0  0
 28 29  1  0  0  0  0
 29 30  2  0  0  0  0
  1 30  1  0  0  0  0
 29 31  1  0  0  0  0
 31 32  2  0  0  0  0
 32 33  1  0  0  0  0
 33 34  2  0  0  0  0
 34 35  1  0  0  0  0
 35 36  1  0  0  0  0
 36 37  2  0  0  0  0
 33 37  1  0  0  0  0
 32 38  1  0  0  0  0
 38 39  2  0  0  0  0
 39 40  1  0  0  0  0
 40 41  2  0  0  0  0
 31 41  1  0  0  0  0
M  END
>  <Name>
Benicar

>  <CAS>
144689-63-4

>  <Formula>
C29H30N6O6

>  <MolWt>
558.59 

>  <Bioactivity>
Olmesartan is an antihypertensive agent, which belongs to the class of medications called angiotensin II receptor blockers. It is indicated for the treatment of high blood pressure and is marketed under the name Olmetec®. The FDA label includes a black-box warning of injury and death to the fetus, so women of child-bearing age need to be warned and take the necessary precautions. Olmesartan is also contraindicated in diabetes mellitus patients taking aliskiren. 

>  <Pathways>
Angiogenesis;Endocrinology/ Hormones

>  <Target>
RAAS inhibitor; ACE inhibitor

>  <Receptor>
RAAS

>  <Reference>
1. Koike H, et al. J Hypertens Suppl. 2001 Jun;19(1):S3-14.

$$$$
T0110
  Mrv1561503291623562D          

 15 16  0  0  1  0            999 V2000
    0.7145   -1.2375    0.0000 C   0  0  2  0  0  0  0  0  0  0  0  0
    0.7145   -0.4125    0.0000 N   0  0  0  0  0  0  0  0  0  0  0  0
   -0.0000   -0.0000    0.0000 C   0  0  0  0  0  0  0  0  0  0  0  0
   -0.0000    0.8250    0.0000 N   0  0  0  0  0  0  0  0  0  0  0  0
    0.7145    1.2375    0.0000 C   0  0  0  0  0  0  0  0  0  0  0  0
    0.7145    2.0625    0.0000 N   0  0  0  0  0  0  0  0  0  0  0  0
    1.4289    0.8250    0.0000 C   0  0  0  0  0  0  0  0  0  0  0  0
    1.4289   -0.0000    0.0000 C   0  0  0  0  0  0  0  0  0  0  0  0
   -0.7145   -0.4125    0.0000 O   0  0  0  0  0  0  0  0  0  0  0  0
    1.3819   -1.7224    0.0000 O   0  0  0  0  0  0  0  0  0  0  0  0
    1.1270   -2.5070    0.0000 C   0  0  2  0  0  0  0  0  0  0  0  0
    1.6119   -3.1745    0.0000 C   0  0  0  0  0  0  0  0  0  0  0  0
    2.4324   -3.0882    0.0000 O   0  0  0  0  0  0  0  0  0  0  0  0
    0.3020   -2.5070    0.0000 C   0  0  0  0  0  0  0  0  0  0  0  0
    0.0470   -1.7224    0.0000 C   0  0  0  0  0  0  0  0  0  0  0  0
  1  2  1  6  0  0  0
  2  3  1  0  0  0  0
  3  4  1  0  0  0  0
  4  5  2  0  0  0  0
  5  6  1  0  0  0  0
  5  7  1  0  0  0  0
  7  8  2  0  0  0  0
  2  8  1  0  0  0  0
  3  9  2  0  0  0  0
  1 10  1  0  0  0  0
 10 11  1  0  0  0  0
 11 12  1  6  0  0  0
 12 13  1  0  0  0  0
 11 14  1  0  0  0  0
 14 15  1  0  0  0  0
  1 15  1  0  0  0  0
M  END
>  <Name>
Zalcitabine

>  <CAS>
7481-89-2

>  <Formula>
C9H13N3O3

>  <MolWt>
211.22 

>  <Bioactivity>
A dideoxynucleoside compound in which the 3'-hydroxy group on the sugar moiety has been replaced by a hydrogen. This modification prevents the formation of phosphodiester linkages which are needed for the completion of nucleic acid chains. The compound is a potent inhibitor of HIV replication at low concentrations, acting as a chain-terminator of viral DNA by binding to reverse transcriptase. Its principal toxic side effect is axonal degeneration resulting in peripheral neuropathy.  

>  <Pathways>
DNA Damage/DNA Repair;Microbiology & Virology

>  <Target>
Reverse Transcriptase inhibitor

>  <Receptor>
Reverse Transcriptase

>  <Reference>
1. Devineni D, Gallo JM. Clin Pharmacokinet. 1995 May;28(5):351-60. 

$$$$
T1614
  Mrv1561503291623562D          

 26 29  0  0  1  0            999 V2000
    0.7475   -2.9779    0.0000 C   0  0  1  0  0  0  0  0  0  0  0  0
    1.5596   -2.8327    0.0000 C   0  0  1  0  0  0  0  0  0  0  0  0
    2.0914   -3.4634    0.0000 C   0  0  1  0  0  0  0  0  0  0  0  0
    2.9035   -3.3182    0.0000 C   0  0  2  0  0  0  0  0  0  0  0  0
    3.1838   -2.5422    0.0000 C   0  0  0  0  0  0  0  0  0  0  0  0
    3.9960   -2.3970    0.0000 C   0  0  0  0  0  0  0  0  0  0  0  0
    4.5278   -3.0277    0.0000 C   0  0  0  0  0  0  0  0  0  0  0  0
    5.3399   -2.8825    0.0000 O   0  0  0  0  0  0  0  0  0  0  0  0
    4.2475   -3.8037    0.0000 C   0  0  0  0  0  0  0  0  0  0  0  0
    3.4354   -3.9489    0.0000 C   0  0  0  0  0  0  0  0  0  0  0  0
    2.6520   -1.9115    0.0000 C   0  0  0  0  0  0  0  0  0  0  0  0
    1.8399   -2.0567    0.0000 C   0  0  0  0  0  0  0  0  0  0  0  0
    2.6232   -4.0941    0.0000 C   0  0  0  0  0  0  0  0  0  0  0  0
    1.8111   -4.2393    0.0000 C   0  0  1  0  0  0  0  0  0  0  0  0
    2.3429   -4.8700    0.0000 O   0  0  0  0  0  0  0  0  0  0  0  0
    0.9990   -4.3845    0.0000 C   0  0  0  0  0  0  0  0  0  0  0  0
    0.4672   -3.7538    0.0000 C   0  0  2  0  0  0  0  0  0  0  0  0
   -0.3574   -3.7270    0.0000 C   0  0  2  0  0  0  0  0  0  0  0  0
   -1.1695   -3.8722    0.0000 C   0  0  0  0  0  0  0  0  0  0  0  0
   -1.7013   -3.2415    0.0000 C   0  0  0  0  0  0  0  0  0  0  0  0
   -2.5134   -3.3867    0.0000 O   0  0  0  0  0  0  0  0  0  0  0  0
   -1.4498   -4.6481    0.0000 O   0  0  0  0  0  0  0  0  0  0  0  0
   -0.2978   -4.5498    0.0000 O   0  0  0  0  0  0  0  0  0  0  0  0
   -0.5867   -2.9345    0.0000 C   0  0  0  0  0  0  0  0  0  0  0  0
    0.0962   -2.4715    0.0000 C   0  0  0  0  0  0  0  0  0  0  0  0
    0.1073   -4.4962    0.0000 C   0  0  0  0  0  0  0  0  0  0  0  0
  1  2  1  0  0  0  0
  2  3  1  0  0  0  0
  3  4  1  0  0  0  0
  4  5  1  0  0  0  0
  5  6  2  0  0  0  0
  6  7  1  0  0  0  0
  7  8  2  0  0  0  0
  7  9  1  0  0  0  0
  9 10  1  0  0  0  0
  4 10  1  0  0  0  0
  5 11  1  0  0  0  0
 11 12  1  0  0  0  0
  2 12  1  6  0  0  0
  4 13  1  1  0  0  0
  3 14  1  1  0  0  0
 14 15  1  1  0  0  0
 14 16  1  0  0  0  0
 16 17  1  0  0  0  0
  1 17  1  0  0  0  0
 17 18  1  0  0  0  0
 18 19  1  1  0  0  0
 19 20  1  0  0  0  0
 20 21  1  0  0  0  0
 19 22  2  0  0  0  0
 18 23  1  6  0  0  0
 18 24  1  0  0  0  0
 24 25  1  0  0  0  0
  1 25  1  1  0  0  0
 17 26  1  1  0  0  0
M  END
>  <Name>
Hydrocortisone

>  <CAS>
50-23-7

>  <Formula>
C21H30O5

>  <MolWt>
362.46 

>  <Bioactivity>
The main glucocorticoid secreted by the adrenal cortex. Its synthetic counterpart is used, either as an injection or topically, in the treatment of inflammation, allergy, collagen diseases, asthma, adrenocortical deficiency, shock, and some neoplastic conditions. 

>  <Pathways>
Endocrinology/ Hormones

>  <Target>
Annexin A;Glucocorticoid Receptor inhibitor;MRP inhibitor

>  <Receptor>
Annexin A1;Glucocorticoid Receptor;MRP1

>  <Reference>
1. Grossman R, et al. Ann N Y Acad Sci. 2006 Jul;1071:410-21.

$$$$
128196-01-0
  Mrv1561503291623562D          

 24 26  0  0  1  0            999 V2000
   -0.5988   -3.8205    0.0000 C   0  0  1  0  0  0  0  0  0  0  0  0
   -0.9423   -4.5706    0.0000 C   0  0  0  0  0  0  0  0  0  0  0  0
   -0.3350   -5.1291    0.0000 C   0  0  0  0  0  0  0  0  0  0  0  0
   -0.5150   -5.9342    0.0000 C   0  0  0  0  0  0  0  0  0  0  0  0
   -1.3022   -6.1809    0.0000 C   0  0  0  0  0  0  0  0  0  0  0  0
   -1.4822   -6.9860    0.0000 C   0  0  0  0  0  0  0  0  0  0  0  0
   -1.6621   -7.7912    0.0000 N   0  0  0  0  0  0  0  0  0  0  0  0
   -1.9095   -5.6225    0.0000 C   0  0  0  0  0  0  0  0  0  0  0  0
   -1.7295   -4.8174    0.0000 C   0  0  0  0  0  0  0  0  0  0  0  0
    0.3838   -4.7241    0.0000 C   0  0  0  0  0  0  0  0  0  0  0  0
    0.2207   -3.9153    0.0000 O   0  0  0  0  0  0  0  0  0  0  0  0
   -1.3045   -3.3932    0.0000 C   0  0  0  0  0  0  0  0  0  0  0  0
   -2.0275   -3.7906    0.0000 C   0  0  0  0  0  0  0  0  0  0  0  0
   -2.7331   -3.3632    0.0000 C   0  0  0  0  0  0  0  0  0  0  0  0
   -2.7159   -2.5384    0.0000 C   0  0  0  0  0  0  0  0  0  0  0  0
   -1.9929   -2.1410    0.0000 C   0  0  0  0  0  0  0  0  0  0  0  0
   -1.2872   -2.5683    0.0000 C   0  0  0  0  0  0  0  0  0  0  0  0
   -3.4215   -2.1110    0.0000 F   0  0  0  0  0  0  0  0  0  0  0  0
   -0.5988   -2.9955    0.0000 C   0  0  0  0  0  0  0  0  0  0  0  0
    0.1156   -2.5830    0.0000 C   0  0  0  0  0  0  0  0  0  0  0  0
    0.8301   -2.9955    0.0000 C   0  0  0  0  0  0  0  0  0  0  0  0
    1.5446   -2.5830    0.0000 N   0  0  0  0  0  0  0  0  0  0  0  0
    1.5446   -1.7580    0.0000 C   0  0  0  0  0  0  0  0  0  0  0  0
    2.2590   -2.9955    0.0000 C   0  0  0  0  0  0  0  0  0  0  0  0
  1  2  1  0  0  0  0
  2  3  2  0  0  0  0
  3  4  1  0  0  0  0
  4  5  2  0  0  0  0
  5  6  1  0  0  0  0
  6  7  3  0  0  0  0
  5  8  1  0  0  0  0
  8  9  2  0  0  0  0
  2  9  1  0  0  0  0
  3 10  1  0  0  0  0
 10 11  1  0  0  0  0
  1 11  1  0  0  0  0
  1 12  1  6  0  0  0
 12 13  2  0  0  0  0
 13 14  1  0  0  0  0
 14 15  2  0  0  0  0
 15 16  1  0  0  0  0
 16 17  2  0  0  0  0
 12 17  1  0  0  0  0
 15 18  1  0  0  0  0
  1 19  1  1  0  0  0
 19 20  1  0  0  0  0
 20 21  1  0  0  0  0
 21 22  1  0  0  0  0
 22 23  1  0  0  0  0
 22 24  1  0  0  0  0
M  END
>  <Name>
Escitalopram

>  <CAS>
128196-01-0

>  <Formula>
C20H21FN2O·C2H2O4

>  <MolWt>
414.43 

>  <Bioactivity>
A furancarbonitrile that is one of the SEROTONIN UPTAKE INHIBITORS used as an antidepressant. The drug is also effective in reducing ethanol uptake in alcoholics and is used in depressed patients who also suffer from tardive dyskinesia in preference to tricyclic antidepressants, which aggravate this condition. 

>  <Pathways>
Neuroscience;GPCR/G protein

>  <Target>
Serotonin uptake inhibitor;Noradrenaline uptake inhibitor;Histamine Receptor antagonist;Dopamine uptake inhibitor;AChR antagonist;Adrenergic Receptor agonist

>  <Receptor>
Sodium-dependent serotonin transporter;Sodium-dependent noradrenaline transporter;Histamine H1 receptor;Sodium-dependent dopamine transporter;Muscarinic AChR;?-adrenergic receptor

>  <Reference>
1. Owens JM, et al. Encephale. 2002 Jul-Aug;28(4):350-5.

$$$$
T0214
  Mrv1561503291623562D          

 25 27  0  0  0  0            999 V2000
    3.5724   -2.8875    0.0000 C   0  0  0  0  0  0  0  0  0  0  0  0
    3.5724   -3.7125    0.0000 C   0  0  0  0  0  0  0  0  0  0  0  0
    4.2868   -4.1250    0.0000 C   0  0  0  0  0  0  0  0  0  0  0  0
    4.2868   -4.9500    0.0000 C   0  0  0  0  0  0  0  0  0  0  0  0
    4.9543   -5.4349    0.0000 C   0  0  0  0  0  0  0  0  0  0  0  0
    4.6993   -6.2195    0.0000 N   0  0  0  0  0  0  0  0  0  0  0  0
    3.8743   -6.2195    0.0000 C   0  0  0  0  0  0  0  0  0  0  0  0
    3.6194   -5.4349    0.0000 S   0  0  0  0  0  0  0  0  0  0  0  0
    3.3894   -6.8870    0.0000 O   0  0  0  0  0  0  0  0  0  0  0  0
    5.7389   -5.1800    0.0000 O   0  0  0  0  0  0  0  0  0  0  0  0
    2.8579   -4.1250    0.0000 C   0  0  0  0  0  0  0  0  0  0  0  0
    2.1434   -3.7125    0.0000 C   0  0  0  0  0  0  0  0  0  0  0  0
    2.1434   -2.8875    0.0000 C   0  0  0  0  0  0  0  0  0  0  0  0
    2.8579   -2.4750    0.0000 C   0  0  0  0  0  0  0  0  0  0  0  0
    1.4289   -2.4750    0.0000 O   0  0  0  0  0  0  0  0  0  0  0  0
    1.4289   -1.6500    0.0000 C   0  0  0  0  0  0  0  0  0  0  0  0
    0.7145   -1.2375    0.0000 C   0  0  0  0  0  0  0  0  0  0  0  0
    0.7145   -0.4125    0.0000 C   0  0  0  0  0  0  0  0  0  0  0  0
    0.0000    0.0000    0.0000 C   0  0  0  0  0  0  0  0  0  0  0  0
    0.0000    0.8250    0.0000 C   0  0  0  0  0  0  0  0  0  0  0  0
    0.7145    1.2375    0.0000 C   0  0  0  0  0  0  0  0  0  0  0  0
    0.7145    2.0625    0.0000 C   0  0  0  0  0  0  0  0  0  0  0  0
    0.0000    2.4750    0.0000 C   0  0  0  0  0  0  0  0  0  0  0  0
    1.4289    0.8250    0.0000 C   0  0  0  0  0  0  0  0  0  0  0  0
    1.4289   -0.0000    0.0000 N   0  0  0  0  0  0  0  0  0  0  0  0
  1  2  2  0  0  0  0
  2  3  1  0  0  0  0
  3  4  1  0  0  0  0
  4  5  1  0  0  0  0
  5  6  1  0  0  0  0
  6  7  1  0  0  0  0
  7  8  1  0  0  0  0
  4  8  1  0  0  0  0
  7  9  2  0  0  0  0
  5 10  2  0  0  0  0
  2 11  1  0  0  0  0
 11 12  2  0  0  0  0
 12 13  1  0  0  0  0
 13 14  2  0  0  0  0
  1 14  1  0  0  0  0
 13 15  1  0  0  0  0
 15 16  1  0  0  0  0
 16 17  1  0  0  0  0
 17 18  1  0  0  0  0
 18 19  2  0  0  0  0
 19 20  1  0  0  0  0
 20 21  2  0  0  0  0
 21 22  1  0  0  0  0
 22 23  1  0  0  0  0
 21 24  1  0  0  0  0
 24 25  2  0  0  0  0
 18 25  1  0  0  0  0
M  END
>  <Name>
Pioglitazone

>  <CAS>
111025-46-8

>  <Formula>
C19H21ClN2O3S

>  <MolWt>
356.44 

>  <Bioactivity>
Pioglitazone is a selective peroxisome proliferator-activated receptor-gamma (PPARgamma) agonist, used to treat diabetes.

>  <Pathways>
Metabolism

>  <Target>
PPAR agonist

>  <Receptor>
PPAR

>  <Reference>
1. Jaakkola T, et al. Basic Clin Pharmacol Toxicol. 2006 Jul;99(1):44-51.

$$$$
132810-10-7
  Mrv1561503291623562D          

 27 30  0  0  0  0            999 V2000
   -0.9280   -1.2094    0.0000 C   0  0  0  0  0  0  0  0  0  0  0  0
   -0.2135   -1.6219    0.0000 C   0  0  0  0  0  0  0  0  0  0  0  0
    0.5009   -1.2094    0.0000 C   0  0  0  0  0  0  0  0  0  0  0  0
    0.5009   -0.3844    0.0000 C   0  0  0  0  0  0  0  0  0  0  0  0
   -0.2135    0.0281    0.0000 N   0  0  0  0  0  0  0  0  0  0  0  0
   -0.9280   -0.3844    0.0000 C   0  0  0  0  0  0  0  0  0  0  0  0
   -1.6425    0.0281    0.0000 N   0  0  0  0  0  0  0  0  0  0  0  0
   -2.3569   -0.3844    0.0000 C   0  0  0  0  0  0  0  0  0  0  0  0
   -3.0714    0.0281    0.0000 C   0  0  0  0  0  0  0  0  0  0  0  0
   -3.0714    0.8531    0.0000 N   0  0  0  0  0  0  0  0  0  0  0  0
   -3.7859    1.2656    0.0000 C   0  0  0  0  0  0  0  0  0  0  0  0
   -3.7859    2.0906    0.0000 C   0  0  0  0  0  0  0  0  0  0  0  0
   -2.3569    1.2656    0.0000 C   0  0  0  0  0  0  0  0  0  0  0  0
   -1.6425    0.8531    0.0000 C   0  0  0  0  0  0  0  0  0  0  0  0
    1.0843    0.1990    0.0000 C   0  0  0  0  0  0  0  0  0  0  0  0
    1.9093    0.1990    0.0000 C   0  0  0  0  0  0  0  0  0  0  0  0
    2.4927   -0.3844    0.0000 C   0  0  0  0  0  0  0  0  0  0  0  0
    2.4927   -1.2094    0.0000 C   0  0  0  0  0  0  0  0  0  0  0  0
    1.9093   -1.7928    0.0000 C   0  0  0  0  0  0  0  0  0  0  0  0
    1.0843   -1.7928    0.0000 C   0  0  0  0  0  0  0  0  0  0  0  0
   -0.2135   -2.4469    0.0000 C   0  0  0  0  0  0  0  0  0  0  0  0
    0.5009   -2.8594    0.0000 C   0  0  0  0  0  0  0  0  0  0  0  0
    0.5009   -3.6844    0.0000 C   0  0  0  0  0  0  0  0  0  0  0  0
   -0.2135   -4.0969    0.0000 C   0  0  0  0  0  0  0  0  0  0  0  0
   -0.2135   -4.9219    0.0000 F   0  0  0  0  0  0  0  0  0  0  0  0
   -0.9280   -3.6844    0.0000 C   0  0  0  0  0  0  0  0  0  0  0  0
   -0.9280   -2.8594    0.0000 C   0  0  0  0  0  0  0  0  0  0  0  0
  1  2  2  0  0  0  0
  2  3  1  0  0  0  0
  3  4  2  0  0  0  0
  4  5  1  0  0  0  0
  5  6  2  0  0  0  0
  1  6  1  0  0  0  0
  6  7  1  0  0  0  0
  7  8  1  0  0  0  0
  8  9  1  0  0  0  0
  9 10  1  0  0  0  0
 10 11  1  0  0  0  0
 11 12  1  0  0  0  0
 10 13  1  0  0  0  0
 13 14  1  0  0  0  0
  7 14  1  0  0  0  0
  4 15  1  0  0  0  0
 15 16  1  0  0  0  0
 16 17  1  0  0  0  0
 17 18  1  0  0  0  0
 18 19  1  0  0  0  0
 19 20  1  0  0  0  0
  3 20  1  0  0  0  0
  2 21  1  0  0  0  0
 21 22  2  0  0  0  0
 22 23  1  0  0  0  0
 23 24  2  0  0  0  0
 24 25  1  0  0  0  0
 24 26  1  0  0  0  0
 26 27  2  0  0  0  0
 21 27  1  0  0  0  0
M  END
>  <Name>
Blonanserin

>  <CAS>
132810-10-7

>  <Formula>
C23H30FN3

>  <MolWt>
367.50 

>  <Bioactivity>
Blonanserin is a novel atypical antipsychotic agent with potent dopamine D2 and serotonin 5-HT2 receptors antagonist properties.

>  <Pathways>
Neuroscience

>  <Target>
5-HT Receptor antagonist;Dopamine Receptor antagonist

>  <Receptor>
5-HT receptor;Dopamine receptor

>  <Reference>
1. Kawabe K, et al. Clin Neuropharmacol. 2013, Nov-Dec; 36(6):239-41. 

$$$$
T1521
  Mrv1561503291623562D          

 27 31  0  0  0  0            999 V2000
    5.4176   -1.7872    0.0000 C   0  0  0  0  0  0  0  0  0  0  0  0
    5.9255   -1.1370    0.0000 C   0  0  0  0  0  0  0  0  0  0  0  0
    5.6165   -0.3721    0.0000 C   0  0  0  0  0  0  0  0  0  0  0  0
    5.0645    0.2410    0.0000 C   0  0  0  0  0  0  0  0  0  0  0  0
    5.3194    1.0256    0.0000 C   0  0  0  0  0  0  0  0  0  0  0  0
    6.1264    1.1971    0.0000 C   0  0  0  0  0  0  0  0  0  0  0  0
    6.6784    0.5840    0.0000 O   0  0  0  0  0  0  0  0  0  0  0  0
    6.4235   -0.2006    0.0000 C   0  0  0  0  0  0  0  0  0  0  0  0
    6.9755   -0.8137    0.0000 O   0  0  0  0  0  0  0  0  0  0  0  0
    4.7674    1.6387    0.0000 C   0  0  0  0  0  0  0  0  0  0  0  0
    5.0223    2.4233    0.0000 O   0  0  0  0  0  0  0  0  0  0  0  0
    3.9604    1.4672    0.0000 N   0  0  0  0  0  0  0  0  0  0  0  0
    3.2929    1.9521    0.0000 C   0  0  0  0  0  0  0  0  0  0  0  0
    2.6255    1.4672    0.0000 C   0  0  0  0  0  0  0  0  0  0  0  0
    2.8804    0.6825    0.0000 C   0  0  0  0  0  0  0  0  0  0  0  0
    3.7054    0.6825    0.0000 C   0  0  0  0  0  0  0  0  0  0  0  0
    4.2575    0.0694    0.0000 C   0  0  0  0  0  0  0  0  0  0  0  0
    2.3284    0.0694    0.0000 N   0  0  0  0  0  0  0  0  0  0  0  0
    1.5214    0.2410    0.0000 C   0  0  0  0  0  0  0  0  0  0  0  0
    0.9694   -0.3721    0.0000 C   0  0  0  0  0  0  0  0  0  0  0  0
    0.1624   -0.2006    0.0000 C   0  0  0  0  0  0  0  0  0  0  0  0
   -0.0925    0.5840    0.0000 C   0  0  0  0  0  0  0  0  0  0  0  0
    0.4595    1.1971    0.0000 C   0  0  0  0  0  0  0  0  0  0  0  0
    1.2665    1.0256    0.0000 C   0  0  0  0  0  0  0  0  0  0  0  0
    1.8185    1.6387    0.0000 C   0  0  0  0  0  0  0  0  0  0  0  0
   -0.8995    0.7556    0.0000 O   0  0  0  0  0  0  0  0  0  0  0  0
    4.9168   -0.8093    0.0000 O   0  0  0  0  0  0  0  0  0  0  0  0
  1  2  1  0  0  0  0
  2  3  1  0  0  0  0
  3  4  1  0  0  0  0
  4  5  2  0  0  0  0
  5  6  1  0  0  0  0
  6  7  1  0  0  0  0
  7  8  1  0  0  0  0
  3  8  1  0  0  0  0
  8  9  2  0  0  0  0
  5 10  1  0  0  0  0
 10 11  2  0  0  0  0
 10 12  1  0  0  0  0
 12 13  1  0  0  0  0
 13 14  1  0  0  0  0
 14 15  2  0  0  0  0
 15 16  1  0  0  0  0
 12 16  1  0  0  0  0
 16 17  2  0  0  0  0
  4 17  1  0  0  0  0
 15 18  1  0  0  0  0
 18 19  2  0  0  0  0
 19 20  1  0  0  0  0
 20 21  2  0  0  0  0
 21 22  1  0  0  0  0
 22 23  2  0  0  0  0
 23 24  1  0  0  0  0
 19 24  1  0  0  0  0
 24 25  2  0  0  0  0
 14 25  1  0  0  0  0
 22 26  1  0  0  0  0
  3 27  1  0  0  0  0
M  END
>  <Name>
Hydroxy Camptothecine

>  <CAS>
64439-81-2

>  <Formula>
C20H16N2O5

>  <MolWt>
364.35 

>  <Bioactivity>
An alkaloid isolated from the stem wood of the Chinese tree, Camptotheca acuminata. This compound selectively inhibits the nuclear enzyme DNA topoisomerase, type I. Several semisynthetic analogs of camptothecin have demonstrated antitumor activity. 

>  <Pathways>
DNA Damage/DNA Repair

>  <Target>
Topoisomerase inhibitor

>  <Receptor>
DNA topoisomerase I

>  <Reference>
1. Zhang S, et al. Anticancer Drugs. 2014 Jul;25(6):614-23. 

$$$$
T1174
  Mrv1561503291623562D          

 33 35  0  0  1  0            999 V2000
    2.5962    1.0823    0.0000 C   0  0  0  0  0  0  0  0  0  0  0  0
    2.9053    1.8472    0.0000 O   0  0  0  0  0  0  0  0  0  0  0  0
    2.0442    0.4692    0.0000 C   0  0  0  0  0  0  0  0  0  0  0  0
    2.2991   -0.3154    0.0000 C   0  0  0  0  0  0  0  0  0  0  0  0
    1.7471   -0.9285    0.0000 C   0  0  0  0  0  0  0  0  0  0  0  0
    2.0020   -1.7131    0.0000 O   0  0  0  0  0  0  0  0  0  0  0  0
    0.9401   -0.7570    0.0000 N   0  0  0  0  0  0  0  0  0  0  0  0
    0.6852    0.0276    0.0000 C   0  0  0  0  0  0  0  0  0  0  0  0
    1.2372    0.6407    0.0000 C   0  0  0  0  0  0  0  0  0  0  0  0
   -0.1398    0.0276    0.0000 C   0  0  0  0  0  0  0  0  0  0  0  0
   -0.6919    0.6407    0.0000 N   0  0  0  0  0  0  0  0  0  0  0  0
   -1.4988    0.4692    0.0000 C   0  0  0  0  0  0  0  0  0  0  0  0
   -1.7538   -0.3154    0.0000 C   0  0  0  0  0  0  0  0  0  0  0  0
   -1.2017   -0.9285    0.0000 C   0  0  0  0  0  0  0  0  0  0  0  0
   -0.3948   -0.7570    0.0000 C   0  0  0  0  0  0  0  0  0  0  0  0
    0.2727   -1.2419    0.0000 C   0  0  0  0  0  0  0  0  0  0  0  0
   -2.5607   -0.4869    0.0000 C   0  0  0  0  0  0  0  0  0  0  0  0
   -3.1128    0.1262    0.0000 C   0  0  0  0  0  0  0  0  0  0  0  0
   -3.9198   -0.0454    0.0000 O   0  0  0  0  0  0  0  0  0  0  0  0
   -2.8578    0.9108    0.0000 C   0  0  0  0  0  0  0  0  0  0  0  0
   -2.0509    1.0823    0.0000 C   0  0  0  0  0  0  0  0  0  0  0  0
   -2.8157   -1.2716    0.0000 C   0  0  0  0  0  0  0  0  0  0  0  0
   -3.6227   -1.4431    0.0000 N   0  0  0  0  0  0  0  0  0  0  0  0
   -3.8776   -2.2277    0.0000 C   0  0  0  0  0  0  0  0  0  0  0  0
   -4.1747   -0.8300    0.0000 C   0  0  0  0  0  0  0  0  0  0  0  0
    3.1061   -0.4869    0.0000 C   0  0  0  0  0  0  0  0  0  0  0  0
    3.6581    0.1262    0.0000 O   0  0  0  0  0  0  0  0  0  0  0  0
    3.4032    0.9108    0.0000 C   0  0  0  0  0  0  0  0  0  0  0  0
    3.9552    1.5239    0.0000 O   0  0  0  0  0  0  0  0  0  0  0  0
    1.8966    1.5195    0.0000 C   0  0  0  0  0  0  0  0  0  0  0  0
    1.9254    2.3440    0.0000 C   0  0  0  0  0  0  0  0  0  0  0  0
    7.1374    0.0000    0.0000 H   0  3  0  0  0  0  0  0  0  0  0  0
    6.3124    0.0000    0.0000 Cl  0  5  0  0  0  0  0  0  0  0  0  0
  1  2  1  0  0  0  0
  1  3  1  0  0  0  0
  3  4  2  0  0  0  0
  4  5  1  0  0  0  0
  5  6  2  0  0  0  0
  5  7  1  0  0  0  0
  7  8  1  0  0  0  0
  8  9  2  0  0  0  0
  3  9  1  0  0  0  0
  8 10  1  0  0  0  0
 10 11  2  0  0  0  0
 11 12  1  0  0  0  0
 12 13  2  0  0  0  0
 13 14  1  0  0  0  0
 14 15  2  0  0  0  0
 10 15  1  0  0  0  0
 15 16  1  0  0  0  0
  7 16  1  0  0  0  0
 13 17  1  0  0  0  0
 17 18  2  0  0  0  0
 18 19  1  0  0  0  0
 18 20  1  0  0  0  0
 20 21  2  0  0  0  0
 12 21  1  0  0  0  0
 17 22  1  0  0  0  0
 22 23  1  0  0  0  0
 23 24  1  0  0  0  0
 23 25  1  0  0  0  0
  4 26  1  0  0  0  0
 26 27  1  0  0  0  0
 27 28  1  0  0  0  0
  1 28  1  0  0  0  0
 28 29  2  0  0  0  0
  1 30  1  0  0  0  0
 30 31  1  0  0  0  0
M  CHG  2  32   1  33  -1
M  END
>  <Name>
Topotecan HCl

>  <CAS>
119413-54-6

>  <Formula>
C23H24ClN3O5

>  <MolWt>
457.92 

>  <Bioactivity>
An antineoplastic agent used to treat ovarian cancer. It works by inhibiting DNA TOPOISOMERASES, 

>  <Pathways>
DNA Damage/DNA Repair

>  <Target>
Topoisomerase inhibitor

>  <Receptor>
Topoisomerase I

>  <Reference>
1. Caceres G, et al. Anticancer Drugs. 2003, 14(7), 569-574.

$$$$
T1178
  Mrv1561503291623562D          

 14 15  0  0  0  0            999 V2000
   -0.1435   -0.0305    0.0000 C   0  0  0  0  0  0  0  0  0  0  0  0
   -0.6284   -0.6979    0.0000 N   0  0  0  0  0  0  0  0  0  0  0  0
   -0.1435   -1.3654    0.0000 C   0  0  0  0  0  0  0  0  0  0  0  0
    0.6411   -1.1104    0.0000 C   0  0  0  0  0  0  0  0  0  0  0  0
    0.6411   -0.2854    0.0000 N   0  0  0  0  0  0  0  0  0  0  0  0
    1.3556    0.1271    0.0000 C   0  0  0  0  0  0  0  0  0  0  0  0
    2.0701   -0.2854    0.0000 N   0  0  0  0  0  0  0  0  0  0  0  0
    2.7845    0.1271    0.0000 C   0  0  0  0  0  0  0  0  0  0  0  0
    2.0701   -1.1104    0.0000 N   0  0  0  0  0  0  0  0  0  0  0  0
    1.3556   -1.5229    0.0000 N   0  0  0  0  0  0  0  0  0  0  0  0
    1.3556    0.9521    0.0000 O   0  0  0  0  0  0  0  0  0  0  0  0
   -0.3984   -2.1500    0.0000 C   0  0  0  0  0  0  0  0  0  0  0  0
    0.1536   -2.7631    0.0000 N   0  0  0  0  0  0  0  0  0  0  0  0
   -1.2054   -2.3215    0.0000 O   0  0  0  0  0  0  0  0  0  0  0  0
  1  2  2  0  0  0  0
  2  3  1  0  0  0  0
  3  4  2  0  0  0  0
  4  5  1  0  0  0  0
  1  5  1  0  0  0  0
  5  6  1  0  0  0  0
  6  7  1  0  0  0  0
  7  8  1  0  0  0  0
  7  9  1  0  0  0  0
  9 10  2  0  0  0  0
  4 10  1  0  0  0  0
  6 11  2  0  0  0  0
  3 12  1  0  0  0  0
 12 13  1  0  0  0  0
 12 14  2  0  0  0  0
M  END
>  <Name>
Temozolomide

>  <CAS>
85622-93-1

>  <Formula>
C6H6N6O2

>  <MolWt>
194.15 

>  <Bioactivity>
Temozolomide, an alkylating agent, is a DNA damage inducer.

>  <Pathways>
DNA Damage/DNA Repair

>  <Target>
DNA Alkylating

>  <Receptor>
DNA

>  <Reference>
1. Dinca EB, et al. J Neurosurg. 2007 Sep;107(3):610-6. 

$$$$
158681-13-1
  Mrv1561503291623562D          

 32 33  0  0  0  0            999 V2000
    0.4125    0.0000    0.0000 H   0  3  0  0  0  0  0  0  0  0  0  0
    5.3897    1.7818    0.0000 C   0  0  0  0  0  0  0  0  0  0  0  0
    5.3897    2.6068    0.0000 C   0  0  0  0  0  0  0  0  0  0  0  0
    6.1041    3.0193    0.0000 C   0  0  0  0  0  0  0  0  0  0  0  0
    6.8186    2.6068    0.0000 C   0  0  0  0  0  0  0  0  0  0  0  0
    6.8186    1.7818    0.0000 C   0  0  0  0  0  0  0  0  0  0  0  0
    6.1041    1.3693    0.0000 C   0  0  0  0  0  0  0  0  0  0  0  0
    6.1041    0.5443    0.0000 N   0  0  0  0  0  0  0  0  0  0  0  0
    6.7716    0.0594    0.0000 N   0  0  0  0  0  0  0  0  0  0  0  0
    6.5166   -0.7253    0.0000 C   0  0  0  0  0  0  0  0  0  0  0  0
    5.6916   -0.7253    0.0000 C   0  0  0  0  0  0  0  0  0  0  0  0
    5.4367    0.0594    0.0000 C   0  0  0  0  0  0  0  0  0  0  0  0
    4.6521    0.3143    0.0000 C   0  0  0  0  0  0  0  0  0  0  0  0
    4.0390   -0.2377    0.0000 C   0  0  0  0  0  0  0  0  0  0  0  0
    3.2544    0.0172    0.0000 C   0  0  0  0  0  0  0  0  0  0  0  0
    3.0828    0.8242    0.0000 C   0  0  0  0  0  0  0  0  0  0  0  0
    2.2982    1.0791    0.0000 Cl  0  0  0  0  0  0  0  0  0  0  0  0
    3.6959    1.3762    0.0000 C   0  0  0  0  0  0  0  0  0  0  0  0
    4.4806    1.1213    0.0000 C   0  0  0  0  0  0  0  0  0  0  0  0
    5.2067   -1.3927    0.0000 C   0  0  0  0  0  0  0  0  0  0  0  0
    7.0016   -1.3927    0.0000 C   0  0  0  0  0  0  0  0  0  0  0  0
    6.6660   -2.1464    0.0000 O   0  0  0  0  0  0  0  0  0  0  0  0
    7.8220   -1.3065    0.0000 N   0  0  0  0  0  0  0  0  0  0  0  0
    8.3070   -1.9739    0.0000 N   0  0  0  0  0  0  0  0  0  0  0  0
    9.1274   -1.8877    0.0000 C   0  0  0  0  0  0  0  0  0  0  0  0
    9.6124   -2.5551    0.0000 C   0  0  0  0  0  0  0  0  0  0  0  0
    9.2768   -3.3088    0.0000 C   0  0  0  0  0  0  0  0  0  0  0  0
    8.4563   -3.3950    0.0000 C   0  0  0  0  0  0  0  0  0  0  0  0
    7.9714   -2.7276    0.0000 C   0  0  0  0  0  0  0  0  0  0  0  0
    7.5331    1.3693    0.0000 Cl  0  0  0  0  0  0  0  0  0  0  0  0
    6.1041    3.8443    0.0000 Cl  0  0  0  0  0  0  0  0  0  0  0  0
   -0.4125    0.0000    0.0000 Cl  0  5  0  0  0  0  0  0  0  0  0  0
  2  3  2  0  0  0  0
  3  4  1  0  0  0  0
  4  5  2  0  0  0  0
  5  6  1  0  0  0  0
  6  7  2  0  0  0  0
  2  7  1  0  0  0  0
  7  8  1  0  0  0  0
  8  9  1  0  0  0  0
  9 10  2  0  0  0  0
 10 11  1  0  0  0  0
 11 12  2  0  0  0  0
  8 12  1  0  0  0  0
 12 13  1  0  0  0  0
 13 14  2  0  0  0  0
 14 15  1  0  0  0  0
 15 16  2  0  0  0  0
 16 17  1  0  0  0  0
 16 18  1  0  0  0  0
 18 19  2  0  0  0  0
 13 19  1  0  0  0  0
 11 20  1  0  0  0  0
 10 21  1  0  0  0  0
 21 22  2  0  0  0  0
 21 23  1  0  0  0  0
 23 24  1  0  0  0  0
 24 25  1  0  0  0  0
 25 26  1  0  0  0  0
 26 27  1  0  0  0  0
 27 28  1  0  0  0  0
 28 29  1  0  0  0  0
 24 29  1  0  0  0  0
  6 30  1  0  0  0  0
  4 31  1  0  0  0  0
M  CHG  2   1   1  32  -1
M  END
>  <Name>
Rimonabant HCl

>  <CAS>
158681-13-1

>  <Formula>
C22H21Cl3N4O

>  <MolWt>
500.25 

>  <Bioactivity>
Rimonabant is an anorectic anti-obesity drug produced and marketed by Sanofi-Aventis. It is an inverse agonist for the cannabinoid receptor CB1. Its main avenue of effect is reduction in appetite. Rimonabant is the first selective CB1 receptor blocker to be approved for use anywhere in the world. Rimonabant is approved in 38 countries including the E.U., Mexico, and Brazil. It was rejected for approval for use in the United States. This decision was made after a U.S. advisory panel recommended the medicine not be approved because it may increase suicidal thinking and depression. 

>  <Pathways>
GPCR/G Protein

>  <Target>
Cannabinoid Receptor antagonist

>  <Receptor>
Cannabinoid Receptor

>  <Reference>
1. Shire D, et al. J Biol Chem. 1996 Mar 22;271(12):6941-6. 

$$$$
82640-04-8
  Mrv1561503291623562D          

 36 38  0  0  0  0            999 V2000
    0.4125    0.0000    0.0000 H   0  3  0  0  0  0  0  0  0  0  0  0
    6.6773    1.3027    0.0000 C   0  0  0  0  0  0  0  0  0  0  0  0
    7.4843    1.1312    0.0000 C   0  0  0  0  0  0  0  0  0  0  0  0
    8.0363    1.7443    0.0000 O   0  0  0  0  0  0  0  0  0  0  0  0
    7.7814    2.5289    0.0000 C   0  0  0  0  0  0  0  0  0  0  0  0
    8.3334    3.1420    0.0000 C   0  0  0  0  0  0  0  0  0  0  0  0
    8.0785    3.9267    0.0000 N   0  0  0  0  0  0  0  0  0  0  0  0
    7.2715    4.0982    0.0000 C   0  0  0  0  0  0  0  0  0  0  0  0
    7.0166    4.8828    0.0000 C   0  0  0  0  0  0  0  0  0  0  0  0
    7.5686    5.4959    0.0000 C   0  0  0  0  0  0  0  0  0  0  0  0
    8.3756    5.3244    0.0000 C   0  0  0  0  0  0  0  0  0  0  0  0
    8.6305    4.5397    0.0000 C   0  0  0  0  0  0  0  0  0  0  0  0
    7.7392    0.3466    0.0000 C   0  0  0  0  0  0  0  0  0  0  0  0
    7.1872   -0.2665    0.0000 C   0  0  0  0  0  0  0  0  0  0  0  0
    6.3802   -0.0950    0.0000 C   0  0  0  0  0  0  0  0  0  0  0  0
    6.1253    0.6897    0.0000 C   0  0  0  0  0  0  0  0  0  0  0  0
    5.8282   -0.7081    0.0000 C   0  0  0  0  0  0  0  0  0  0  0  0
    5.0212   -0.5365    0.0000 O   0  0  0  0  0  0  0  0  0  0  0  0
    6.0831   -1.4927    0.0000 C   0  0  0  0  0  0  0  0  0  0  0  0
    5.5982   -2.1601    0.0000 C   0  0  0  0  0  0  0  0  0  0  0  0
    6.0831   -2.8276    0.0000 S   0  0  0  0  0  0  0  0  0  0  0  0
    6.8678   -2.5726    0.0000 C   0  0  0  0  0  0  0  0  0  0  0  0
    6.8678   -1.7476    0.0000 C   0  0  0  0  0  0  0  0  0  0  0  0
    7.5822   -1.3351    0.0000 C   0  0  0  0  0  0  0  0  0  0  0  0
    8.2967   -1.7476    0.0000 C   0  0  0  0  0  0  0  0  0  0  0  0
    8.2967   -2.5726    0.0000 C   0  0  0  0  0  0  0  0  0  0  0  0
    7.5822   -2.9851    0.0000 C   0  0  0  0  0  0  0  0  0  0  0  0
    9.0112   -2.9851    0.0000 O   0  0  0  0  0  0  0  0  0  0  0  0
    4.7732   -2.1601    0.0000 C   0  0  0  0  0  0  0  0  0  0  0  0
    4.3607   -2.8746    0.0000 C   0  0  0  0  0  0  0  0  0  0  0  0
    3.5357   -2.8746    0.0000 C   0  0  0  0  0  0  0  0  0  0  0  0
    3.1232   -2.1601    0.0000 C   0  0  0  0  0  0  0  0  0  0  0  0
    2.2982   -2.1601    0.0000 O   0  0  0  0  0  0  0  0  0  0  0  0
    3.5357   -1.4457    0.0000 C   0  0  0  0  0  0  0  0  0  0  0  0
    4.3607   -1.4457    0.0000 C   0  0  0  0  0  0  0  0  0  0  0  0
   -0.4125    0.0000    0.0000 Cl  0  5  0  0  0  0  0  0  0  0  0  0
  2  3  2  0  0  0  0
  3  4  1  0  0  0  0
  4  5  1  0  0  0  0
  5  6  1  0  0  0  0
  6  7  1  0  0  0  0
  7  8  1  0  0  0  0
  8  9  1  0  0  0  0
  9 10  1  0  0  0  0
 10 11  1  0  0  0  0
 11 12  1  0  0  0  0
  7 12  1  0  0  0  0
  3 13  1  0  0  0  0
 13 14  2  0  0  0  0
 14 15  1  0  0  0  0
 15 16  2  0  0  0  0
  2 16  1  0  0  0  0
 15 17  1  0  0  0  0
 17 18  2  0  0  0  0
 17 19  1  0  0  0  0
 19 20  2  0  0  0  0
 20 21  1  0  0  0  0
 21 22  1  0  0  0  0
 22 23  2  0  0  0  0
 19 23  1  0  0  0  0
 23 24  1  0  0  0  0
 24 25  2  0  0  0  0
 25 26  1  0  0  0  0
 26 27  2  0  0  0  0
 22 27  1  0  0  0  0
 26 28  1  0  0  0  0
 20 29  1  0  0  0  0
 29 30  2  0  0  0  0
 30 31  1  0  0  0  0
 31 32  2  0  0  0  0
 32 33  1  0  0  0  0
 32 34  1  0  0  0  0
 34 35  2  0  0  0  0
 29 35  1  0  0  0  0
M  CHG  2   1   1  36  -1
M  END
>  <Name>
Raloxifene HCl

>  <CAS>
82640-04-8

>  <Formula>
C28H28ClNO4S

>  <MolWt>
510.04 

>  <Bioactivity>
Second generation selective estrogen receptor modulator (SERM) used to prevent osteoporosis in postmenopausal women. It has estrogen agonist effects on bone and cholesterol metabolism but behaves as a complete estrogen antagonist on mammary gland and uterine tissue. 

>  <Pathways>
Endocrinology/ Hormones

>  <Target>
Estrogen/Progestogen Receptor antagonist; SERM agonist

>  <Receptor>
Estrogen Receptor ;AO;SERM

>  <Reference>
1. Obach RS, et al. Drug Metab Dispos, 2004, 32(1), 89-97.

$$$$
70288-86-7
  Mrv1561503291623562D          

123135  0  0  1  0            999 V2000
   -1.2547   -2.8975    0.0000 C   0  0  2  0  0  0  0  0  0  0  0  0
   -1.2198   -3.7218    0.0000 O   0  0  0  0  0  0  0  0  0  0  0  0
   -1.9935   -3.2647    0.0000 C   0  0  2  0  0  0  0  0  0  0  0  0
   -2.5710   -2.6755    0.0000 O   0  0  0  0  0  0  0  0  0  0  0  0
   -2.1891   -1.9442    0.0000 C   0  0  0  0  0  0  0  0  0  0  0  0
   -1.3756   -2.0814    0.0000 C   0  0  0  0  0  0  0  0  0  0  0  0
   -0.7293   -1.5687    0.0000 C   0  0  0  0  0  0  0  0  0  0  0  0
   -0.8502   -0.7526    0.0000 C   0  0  0  0  0  0  0  0  0  0  0  0
   -0.2039   -0.2398    0.0000 C   0  0  0  0  0  0  0  0  0  0  0  0
   -0.3248    0.5763    0.0000 C   0  0  1  0  0  0  0  0  0  0  0  0
    0.3216    1.0890    0.0000 C   0  0  2  0  0  0  0  0  0  0  0  0
    0.2007    1.9051    0.0000 O   0  0  0  0  0  0  0  0  0  0  0  0
   -0.5665    2.2084    0.0000 C   0  0  2  0  0  0  0  0  0  0  0  0
   -1.2129    1.6957    0.0000 O   0  0  0  0  0  0  0  0  0  0  0  0
   -1.9801    1.9991    0.0000 C   0  0  2  0  0  0  0  0  0  0  0  0
   -2.1010    2.8151    0.0000 C   0  0  2  0  0  0  0  0  0  0  0  0
   -2.8682    3.1185    0.0000 O   0  0  0  0  0  0  0  0  0  0  0  0
   -2.9891    3.9346    0.0000 C   0  0  2  0  0  0  0  0  0  0  0  0
   -3.7563    4.2379    0.0000 O   0  0  0  0  0  0  0  0  0  0  0  0
   -3.8772    5.0540    0.0000 C   0  0  2  0  0  0  0  0  0  0  0  0
   -3.2309    5.5668    0.0000 C   0  0  2  0  0  0  0  0  0  0  0  0
   -3.3517    6.3829    0.0000 O   0  0  0  0  0  0  0  0  0  0  0  0
   -2.4636    5.2634    0.0000 C   0  0  1  0  0  0  0  0  0  0  0  0
   -1.8173    5.7762    0.0000 O   0  0  0  0  0  0  0  0  0  0  0  0
   -1.0501    5.4728    0.0000 C   0  0  0  0  0  0  0  0  0  0  0  0
   -2.3427    4.4473    0.0000 C   0  0  0  0  0  0  0  0  0  0  0  0
   -4.6444    5.3574    0.0000 C   0  0  0  0  0  0  0  0  0  0  0  0
   -1.4546    3.3279    0.0000 C   0  0  1  0  0  0  0  0  0  0  0  0
   -1.5755    4.1440    0.0000 O   0  0  0  0  0  0  0  0  0  0  0  0
   -0.9292    4.6567    0.0000 C   0  0  0  0  0  0  0  0  0  0  0  0
   -0.6874    3.0245    0.0000 C   0  0  0  0  0  0  0  0  0  0  0  0
   -2.6264    1.4863    0.0000 C   0  0  0  0  0  0  0  0  0  0  0  0
    1.0888    0.7857    0.0000 C   0  0  0  0  0  0  0  0  0  0  0  0
    1.2097   -0.0304    0.0000 C   0  0  0  0  0  0  0  0  0  0  0  0
    1.9769   -0.3338    0.0000 C   0  0  0  0  0  0  0  0  0  0  0  0
    2.0978   -1.1499    0.0000 C   0  0  1  0  0  0  0  0  0  0  0  0
    2.8650   -1.4532    0.0000 O   0  0  0  0  0  0  0  0  0  0  0  0
    2.9859   -2.2693    0.0000 C   0  0  1  0  0  0  0  0  0  0  0  0
    3.6322   -1.7566    0.0000 O   0  0  0  0  0  0  0  0  0  0  0  0
    4.3994   -2.0599    0.0000 C   0  0  1  0  0  0  0  0  0  0  0  0
    4.5203   -2.8760    0.0000 C   0  0  2  0  0  0  0  0  0  0  0  0
    3.8740   -3.3888    0.0000 C   0  0  0  0  0  0  0  0  0  0  0  0
    3.1068   -3.0854    0.0000 C   0  0  0  0  0  0  0  0  0  0  0  0
    5.2875   -3.1794    0.0000 C   0  0  0  0  0  0  0  0  0  0  0  0
    5.0457   -1.5472    0.0000 C   0  0  0  0  0  0  0  0  0  0  0  0
    5.8129   -1.8505    0.0000 C   0  0  0  0  0  0  0  0  0  0  0  0
    6.4592   -1.3378    0.0000 C   0  0  0  0  0  0  0  0  0  0  0  0
    4.9248   -0.7311    0.0000 C   0  0  0  0  0  0  0  0  0  0  0  0
    2.3396   -2.7821    0.0000 C   0  0  0  0  0  0  0  0  0  0  0  0
    1.5723   -2.4787    0.0000 C   0  0  1  0  0  0  0  0  0  0  0  0
    0.9260   -2.9915    0.0000 O   0  0  0  0  0  0  0  0  0  0  0  0
    0.1588   -2.6881    0.0000 C   0  0  0  0  0  0  0  0  0  0  0  0
    0.0379   -1.8720    0.0000 O   0  0  0  0  0  0  0  0  0  0  0  0
   -0.4875   -3.2009    0.0000 C   0  0  2  0  0  0  0  0  0  0  0  0
   -0.6187   -4.1771    0.0000 C   0  0  0  0  0  0  0  0  0  0  0  0
   -1.3575   -4.5443    0.0000 C   0  0  0  0  0  0  0  0  0  0  0  0
   -2.0449   -4.0881    0.0000 C   0  0  1  0  0  0  0  0  0  0  0  0
   -2.7837   -4.4552    0.0000 O   0  0  0  0  0  0  0  0  0  0  0  0
   -1.4089   -5.3677    0.0000 C   0  0  0  0  0  0  0  0  0  0  0  0
    1.4515   -1.6626    0.0000 C   0  0  0  0  0  0  0  0  0  0  0  0
    1.7351    1.2984    0.0000 C   0  0  0  0  0  0  0  0  0  0  0  0
   -1.0920    0.8796    0.0000 C   0  0  0  0  0  0  0  0  0  0  0  0
   12.2060   -2.9194    0.0000 C   0  0  2  0  0  0  0  0  0  0  0  0
   12.2410   -3.7437    0.0000 O   0  0  0  0  0  0  0  0  0  0  0  0
   11.4672   -3.2866    0.0000 C   0  0  2  0  0  0  0  0  0  0  0  0
   10.8897   -2.6974    0.0000 O   0  0  0  0  0  0  0  0  0  0  0  0
   11.2716   -1.9661    0.0000 C   0  0  0  0  0  0  0  0  0  0  0  0
   12.0851   -2.1033    0.0000 C   0  0  0  0  0  0  0  0  0  0  0  0
   12.7314   -1.5906    0.0000 C   0  0  0  0  0  0  0  0  0  0  0  0
   12.6106   -0.7745    0.0000 C   0  0  0  0  0  0  0  0  0  0  0  0
   13.2569   -0.2618    0.0000 C   0  0  0  0  0  0  0  0  0  0  0  0
   13.1360    0.5543    0.0000 C   0  0  1  0  0  0  0  0  0  0  0  0
   13.7823    1.0671    0.0000 C   0  0  2  0  0  0  0  0  0  0  0  0
   13.6614    1.8832    0.0000 O   0  0  0  0  0  0  0  0  0  0  0  0
   12.8942    2.1865    0.0000 C   0  0  2  0  0  0  0  0  0  0  0  0
   12.2479    1.6738    0.0000 O   0  0  0  0  0  0  0  0  0  0  0  0
   11.4807    1.9771    0.0000 C   0  0  2  0  0  0  0  0  0  0  0  0
   11.3598    2.7932    0.0000 C   0  0  2  0  0  0  0  0  0  0  0  0
   10.5926    3.0966    0.0000 O   0  0  0  0  0  0  0  0  0  0  0  0
   10.4717    3.9127    0.0000 C   0  0  2  0  0  0  0  0  0  0  0  0
    9.7045    4.2160    0.0000 O   0  0  0  0  0  0  0  0  0  0  0  0
    9.5836    5.0321    0.0000 C   0  0  2  0  0  0  0  0  0  0  0  0
   10.2299    5.5448    0.0000 C   0  0  2  0  0  0  0  0  0  0  0  0
   10.1090    6.3609    0.0000 O   0  0  0  0  0  0  0  0  0  0  0  0
   10.9971    5.2415    0.0000 C   0  0  1  0  0  0  0  0  0  0  0  0
   11.6434    5.7542    0.0000 O   0  0  0  0  0  0  0  0  0  0  0  0
   12.4106    5.4509    0.0000 C   0  0  0  0  0  0  0  0  0  0  0  0
   11.1180    4.4254    0.0000 C   0  0  0  0  0  0  0  0  0  0  0  0
    8.8163    5.3354    0.0000 C   0  0  0  0  0  0  0  0  0  0  0  0
   12.0061    3.3060    0.0000 C   0  0  1  0  0  0  0  0  0  0  0  0
   11.8852    4.1221    0.0000 O   0  0  0  0  0  0  0  0  0  0  0  0
   12.5315    4.6348    0.0000 C   0  0  0  0  0  0  0  0  0  0  0  0
   12.7733    3.0026    0.0000 C   0  0  0  0  0  0  0  0  0  0  0  0
   10.8343    1.4644    0.0000 C   0  0  0  0  0  0  0  0  0  0  0  0
   14.5495    0.7637    0.0000 C   0  0  0  0  0  0  0  0  0  0  0  0
   14.6704   -0.0524    0.0000 C   0  0  0  0  0  0  0  0  0  0  0  0
   15.4376   -0.3557    0.0000 C   0  0  0  0  0  0  0  0  0  0  0  0
   15.5585   -1.1718    0.0000 C   0  0  1  0  0  0  0  0  0  0  0  0
   16.3257   -1.4752    0.0000 O   0  0  0  0  0  0  0  0  0  0  0  0
   16.4466   -2.2912    0.0000 C   0  0  1  0  0  0  0  0  0  0  0  0
   17.0929   -1.7785    0.0000 O   0  0  0  0  0  0  0  0  0  0  0  0
   17.8601   -2.0818    0.0000 C   0  0  1  0  0  0  0  0  0  0  0  0
   17.9810   -2.8979    0.0000 C   0  0  2  0  0  0  0  0  0  0  0  0
   17.3347   -3.4107    0.0000 C   0  0  0  0  0  0  0  0  0  0  0  0
   16.5675   -3.1073    0.0000 C   0  0  0  0  0  0  0  0  0  0  0  0
   18.7482   -3.2013    0.0000 C   0  0  0  0  0  0  0  0  0  0  0  0
   18.5064   -1.5691    0.0000 C   0  0  0  0  0  0  0  0  0  0  0  0
   19.2736   -1.8725    0.0000 C   0  0  0  0  0  0  0  0  0  0  0  0
   18.3855   -0.7530    0.0000 C   0  0  0  0  0  0  0  0  0  0  0  0
   15.8003   -2.8040    0.0000 C   0  0  0  0  0  0  0  0  0  0  0  0
   15.0331   -2.5006    0.0000 C   0  0  1  0  0  0  0  0  0  0  0  0
   14.3868   -3.0134    0.0000 O   0  0  0  0  0  0  0  0  0  0  0  0
   13.6195   -2.7100    0.0000 C   0  0  0  0  0  0  0  0  0  0  0  0
   13.4987   -1.8939    0.0000 O   0  0  0  0  0  0  0  0  0  0  0  0
   12.9732   -3.2228    0.0000 C   0  0  2  0  0  0  0  0  0  0  0  0
   12.8420   -4.1991    0.0000 C   0  0  0  0  0  0  0  0  0  0  0  0
   12.1032   -4.5662    0.0000 C   0  0  0  0  0  0  0  0  0  0  0  0
   11.4158   -4.1100    0.0000 C   0  0  1  0  0  0  0  0  0  0  0  0
   10.6770   -4.4772    0.0000 O   0  0  0  0  0  0  0  0  0  0  0  0
   12.0518   -5.3896    0.0000 C   0  0  0  0  0  0  0  0  0  0  0  0
   14.9122   -1.6846    0.0000 C   0  0  0  0  0  0  0  0  0  0  0  0
   15.1958    1.2765    0.0000 C   0  0  0  0  0  0  0  0  0  0  0  0
   12.3688    0.8577    0.0000 C   0  0  0  0  0  0  0  0  0  0  0  0
  1  2  1  6  0  0  0
  1  3  1  0  0  0  0
  3  4  1  1  0  0  0
  4  5  1  0  0  0  0
  5  6  1  0  0  0  0
  1  6  1  0  0  0  0
  6  7  2  0  0  0  0
  7  8  1  4  0  0  0
  8  9  2  0  0  0  0
  9 10  1  0  0  0  0
 10 11  1  0  0  0  0
 11 12  1  6  0  0  0
 13 12  1  6  0  0  0
 13 14  1  0  0  0  0
 14 15  1  0  0  0  0
 15 16  1  0  0  0  0
 16 17  1  6  0  0  0
 18 17  1  6  0  0  0
 18 19  1  0  0  0  0
 19 20  1  0  0  0  0
 20 21  1  0  0  0  0
 21 22  1  6  0  0  0
 21 23  1  0  0  0  0
 23 24  1  1  0  0  0
 24 25  1  0  0  0  0
 23 26  1  0  0  0  0
 18 26  1  0  0  0  0
 20 27  1  1  0  0  0
 16 28  1  0  0  0  0
 28 29  1  1  0  0  0
 29 30  1  0  0  0  0
 28 31  1  0  0  0  0
 13 31  1  0  0  0  0
 15 32  1  1  0  0  0
 11 33  1  0  0  0  0
 33 34  2  0  0  0  0
 34 35  1  0  0  0  0
 35 36  1  0  0  0  0
 36 37  1  0  0  0  0
 38 37  1  1  0  0  0
 38 39  1  0  0  0  0
 39 40  1  0  0  0  0
 40 41  1  0  0  0  0
 41 42  1  0  0  0  0
 42 43  1  0  0  0  0
 38 43  1  0  0  0  0
 41 44  1  1  0  0  0
 40 45  1  6  0  0  0
 45 46  1  0  0  0  0
 46 47  1  0  0  0  0
 45 48  1  0  0  0  0
 38 49  1  0  0  0  0
 49 50  1  0  0  0  0
 50 51  1  0  0  0  0
 51 52  1  0  0  0  0
 52 53  2  0  0  0  0
 52 54  1  0  0  0  0
  1 54  1  0  0  0  0
 54 55  1  6  0  0  0
 55 56  2  0  0  0  0
 56 57  1  0  0  0  0
  3 57  1  0  0  0  0
 57 58  1  1  0  0  0
 56 59  1  0  0  0  0
 50 60  1  1  0  0  0
 36 60  1  1  0  0  0
 33 61  1  0  0  0  0
 10 62  1  6  0  0  0
 63 64  1  6  0  0  0
 63 65  1  0  0  0  0
 65 66  1  1  0  0  0
 66 67  1  0  0  0  0
 67 68  1  0  0  0  0
 63 68  1  0  0  0  0
 68 69  2  0  0  0  0
 69 70  1  0  0  0  0
 70 71  2  0  0  0  0
 71 72  1  0  0  0  0
 72 73  1  0  0  0  0
 73 74  1  6  0  0  0
 75 74  1  6  0  0  0
 75 76  1  0  0  0  0
 76 77  1  0  0  0  0
 77 78  1  0  0  0  0
 78 79  1  6  0  0  0
 80 79  1  6  0  0  0
 80 81  1  0  0  0  0
 81 82  1  0  0  0  0
 82 83  1  0  0  0  0
 83 84  1  6  0  0  0
 83 85  1  0  0  0  0
 85 86  1  1  0  0  0
 86 87  1  0  0  0  0
 85 88  1  0  0  0  0
 80 88  1  0  0  0  0
 82 89  1  1  0  0  0
 78 90  1  0  0  0  0
 90 91  1  1  0  0  0
 91 92  1  0  0  0  0
 90 93  1  0  0  0  0
 75 93  1  0  0  0  0
 77 94  1  1  0  0  0
 73 95  1  0  0  0  0
 95 96  2  0  0  0  0
 96 97  1  0  0  0  0
 97 98  1  0  0  0  0
 98 99  1  0  0  0  0
100 99  1  1  0  0  0
100101  1  0  0  0  0
101102  1  0  0  0  0
102103  1  0  0  0  0
103104  1  0  0  0  0
104105  1  0  0  0  0
100105  1  0  0  0  0
103106  1  1  0  0  0
102107  1  6  0  0  0
107108  1  0  0  0  0
107109  1  0  0  0  0
100110  1  0  0  0  0
110111  1  0  0  0  0
111112  1  0  0  0  0
112113  1  0  0  0  0
113114  2  0  0  0  0
113115  1  0  0  0  0
 63115  1  0  0  0  0
115116  1  6  0  0  0
116117  2  0  0  0  0
117118  1  0  0  0  0
 65118  1  0  0  0  0
118119  1  1  0  0  0
117120  1  0  0  0  0
111121  1  1  0  0  0
 98121  1  1  0  0  0
 95122  1  0  0  0  0
 72123  1  6  0  0  0
M  END
>  <Name>
Ivermectin

>  <CAS>
70288-86-7

>  <Formula>
C48H74O14

>  <MolWt>
875.09 

>  <Bioactivity>
Ivermectin is a broad-spectrum antiparasitic drug in the avermectin family. It is taken internally or used topically, depending on the treated condition.

>  <Pathways>
Membrane Transporter/Ion Channel; Neuroscience

>  <Target>
GluCl Channel activator;P2 Receptor modulator

>  <Receptor>
GluCl channel;P2X purinergic receptor

>  <Reference>
1. Wagstaff KM, et al. Biochem J, 2012, 443(3), 851-856.

$$$$
85650-52-8
  Mrv1561503291623562D          

 20 23  0  0  0  0            999 V2000
    5.5189    0.2898    0.0000 C   0  0  0  0  0  0  0  0  0  0  0  0
    6.1237    0.8510    0.0000 C   0  0  0  0  0  0  0  0  0  0  0  0
    5.9401    1.6553    0.0000 C   0  0  0  0  0  0  0  0  0  0  0  0
    5.1517    1.8985    0.0000 C   0  0  0  0  0  0  0  0  0  0  0  0
    4.5470    1.3373    0.0000 C   0  0  0  0  0  0  0  0  0  0  0  0
    4.7305    0.5330    0.0000 C   0  0  0  0  0  0  0  0  0  0  0  0
    4.2162   -0.1120    0.0000 C   0  0  0  0  0  0  0  0  0  0  0  0
    3.3912   -0.1120    0.0000 N   0  0  0  0  0  0  0  0  0  0  0  0
    2.8768    0.5330    0.0000 C   0  0  0  0  0  0  0  0  0  0  0  0
    3.0604    1.3373    0.0000 C   0  0  0  0  0  0  0  0  0  0  0  0
    3.8037    1.6953    0.0000 C   0  0  0  0  0  0  0  0  0  0  0  0
    2.4556    1.8985    0.0000 C   0  0  0  0  0  0  0  0  0  0  0  0
    1.6673    1.6553    0.0000 C   0  0  0  0  0  0  0  0  0  0  0  0
    1.4837    0.8510    0.0000 C   0  0  0  0  0  0  0  0  0  0  0  0
    2.0884    0.2898    0.0000 N   0  0  0  0  0  0  0  0  0  0  0  0
    2.9787   -0.8265    0.0000 C   0  0  0  0  0  0  0  0  0  0  0  0
    3.3912   -1.5409    0.0000 C   0  0  0  0  0  0  0  0  0  0  0  0
    4.2162   -1.5409    0.0000 N   0  0  0  0  0  0  0  0  0  0  0  0
    4.6287   -0.8265    0.0000 C   0  0  0  0  0  0  0  0  0  0  0  0
    4.6287   -2.2554    0.0000 C   0  0  0  0  0  0  0  0  0  0  0  0
  1  2  2  0  0  0  0
  2  3  1  0  0  0  0
  3  4  2  0  0  0  0
  4  5  1  0  0  0  0
  5  6  2  0  0  0  0
  1  6  1  0  0  0  0
  6  7  1  0  0  0  0
  7  8  1  0  0  0  0
  8  9  1  0  0  0  0
  9 10  2  0  0  0  0
 10 11  1  0  0  0  0
  5 11  1  0  0  0  0
 10 12  1  0  0  0  0
 12 13  2  0  0  0  0
 13 14  1  0  0  0  0
 14 15  2  0  0  0  0
  9 15  1  0  0  0  0
  8 16  1  0  0  0  0
 16 17  1  0  0  0  0
 17 18  1  0  0  0  0
 18 19  1  0  0  0  0
  7 19  1  0  0  0  0
 18 20  1  0  0  0  0
M  END
>  <Name>
Mirtazapine

>  <CAS>
85650-52-8

>  <Formula>
C17H19N3

>  <MolWt>
265.35 

>  <Bioactivity>
Mirtazapine is an antidepressant introduced by Organon International in 1996 used for the treatment of moderate to severe depression. Mirtazapine has a tetracyclic chemical structure and is classified as a noradrenergic and specific serotonergic antidepressant (NaSSA). It is the only tetracyclic antidepressant that has been approved by the Food and Drug Administration to treat depression. 

>  <Pathways>
Neuroscience;GPCR/G protein

>  <Target>
Histamine Receptor antagonist;Opioid Receptor agonist;Dopamine uptake inhibitor;Dopamine Receptor ;Adrenergic Receptor antagonist ;5-HT receptor antagonist;Serotonin uptake inhibitor

>  <Receptor>
Histamine receptor;Kappa-type opioid receptor;Sodium-dependent dopamine transporter;Dopamine receptor;Adrenergic receptor;5-HT receptor ;Sodium-dependent serotonin transporter

>  <Reference>
1. Laakmann G, et al. Psychoneuroendocrinology. 1999 Oct; 24(7):769-84.

$$$$
68497-62-1
  Mrv1561503291623562D          

 24 23  0  0  0  0            999 V2000
    0.0000   -0.8250    0.0000 O   0  0  0  0  0  0  0  0  0  0  0  0
    0.0000    0.0000    0.0000 S   0  0  0  0  0  0  0  0  0  0  0  0
    0.0000    0.8250    0.0000 O   0  0  0  0  0  0  0  0  0  0  0  0
    0.8250   -0.0000    0.0000 O   0  0  0  0  0  0  0  0  0  0  0  0
   -0.8250    0.0000    0.0000 O   0  0  0  0  0  0  0  0  0  0  0  0
    4.8652   -0.0085    0.0000 C   0  0  0  0  0  0  0  0  0  0  0  0
    4.3251    0.6152    0.0000 N   0  0  0  0  0  0  0  0  0  0  0  0
    3.5031    0.5448    0.0000 C   0  0  0  0  0  0  0  0  0  0  0  0
    3.0769   -0.1616    0.0000 O   0  0  0  0  0  0  0  0  0  0  0  0
    3.1821    1.3048    0.0000 C   0  0  0  0  0  0  0  0  0  0  0  0
    3.8058    1.8449    0.0000 C   0  0  0  0  0  0  0  0  0  0  0  0
    4.5122    1.4187    0.0000 C   0  0  0  0  0  0  0  0  0  0  0  0
    5.6753    0.1475    0.0000 C   0  0  0  0  0  0  0  0  0  0  0  0
    5.9453    0.9270    0.0000 O   0  0  0  0  0  0  0  0  0  0  0  0
    6.2154   -0.4762    0.0000 N   0  0  0  0  0  0  0  0  0  0  0  0
    7.0255   -0.3203    0.0000 C   0  0  0  0  0  0  0  0  0  0  0  0
    7.5656   -0.9439    0.0000 C   0  0  0  0  0  0  0  0  0  0  0  0
    8.3757   -0.7880    0.0000 N   0  0  0  0  0  0  0  0  0  0  0  0
    8.9158   -1.4117    0.0000 C   0  0  0  0  0  0  0  0  0  0  0  0
    9.7260   -1.2557    0.0000 C   0  0  0  0  0  0  0  0  0  0  0  0
    8.6458   -2.1912    0.0000 C   0  0  0  0  0  0  0  0  0  0  0  0
    8.6458   -0.0085    0.0000 C   0  0  0  0  0  0  0  0  0  0  0  0
    8.1057    0.6152    0.0000 C   0  0  0  0  0  0  0  0  0  0  0  0
    9.4559    0.1475    0.0000 C   0  0  0  0  0  0  0  0  0  0  0  0
  1  2  2  0  0  0  0
  2  3  2  0  0  0  0
  2  4  1  0  0  0  0
  2  5  1  0  0  0  0
  6  7  1  0  0  0  0
  7  8  1  0  0  0  0
  8  9  2  0  0  0  0
  8 10  1  0  0  0  0
 10 11  1  0  0  0  0
 11 12  1  0  0  0  0
  7 12  1  0  0  0  0
  6 13  1  0  0  0  0
 13 14  2  0  0  0  0
 13 15  1  0  0  0  0
 15 16  1  0  0  0  0
 16 17  1  0  0  0  0
 17 18  1  0  0  0  0
 18 19  1  0  0  0  0
 19 20  1  0  0  0  0
 19 21  1  0  0  0  0
 18 22  1  0  0  0  0
 22 23  1  0  0  0  0
 22 24  1  0  0  0  0
M  END
>  <Name>
Pramiracetam

>  <CAS>
68497-62-1

>  <Formula>
C14H27N3O2

>  <MolWt>
269.38 

>  <Bioactivity>
Pramiracetam is a more potent nootropic drug derived from piracetam. Pramiracetam reportedly improved cognitive deficits associated with traumatic brain injuries. Pramiracetam was also effective in the treatment of cognitive disorders of cerebrovascular and traumatic origins.

>  <Pathways>
Others

>  <Target>
Others

>  <Receptor>
Others

>  <Reference>
1. Corasaniti MT, et al. Funct Neurol. 1995 May-Jun;10(3):151-5.

$$$$
104632-26-0
  Mrv1561503291623562D          

 14 15  0  0  1  0            999 V2000
    3.3523    1.9354    0.0000 C   0  0  2  0  0  0  0  0  0  0  0  0
    3.3523    1.1104    0.0000 C   0  0  0  0  0  0  0  0  0  0  0  0
    2.6378    0.6979    0.0000 C   0  0  0  0  0  0  0  0  0  0  0  0
    1.9233    1.1104    0.0000 C   0  0  0  0  0  0  0  0  0  0  0  0
    1.9233    1.9354    0.0000 C   0  0  0  0  0  0  0  0  0  0  0  0
    1.1387    2.1904    0.0000 S   0  0  0  0  0  0  0  0  0  0  0  0
    0.6538    1.5229    0.0000 C   0  0  0  0  0  0  0  0  0  0  0  0
    1.1387    0.8555    0.0000 N   0  0  0  0  0  0  0  0  0  0  0  0
   -0.1712    1.5229    0.0000 N   0  0  0  0  0  0  0  0  0  0  0  0
    2.6378    2.3479    0.0000 C   0  0  0  0  0  0  0  0  0  0  0  0
    4.0668    2.3479    0.0000 N   0  0  0  0  0  0  0  0  0  0  0  0
    4.0668    3.1729    0.0000 C   0  0  0  0  0  0  0  0  0  0  0  0
    4.7812    3.5854    0.0000 C   0  0  0  0  0  0  0  0  0  0  0  0
    4.7812    4.4104    0.0000 C   0  0  0  0  0  0  0  0  0  0  0  0
  1  2  1  0  0  0  0
  2  3  1  0  0  0  0
  3  4  1  0  0  0  0
  4  5  2  0  0  0  0
  5  6  1  0  0  0  0
  6  7  1  0  0  0  0
  7  8  2  0  0  0  0
  4  8  1  0  0  0  0
  7  9  1  0  0  0  0
  5 10  1  0  0  0  0
  1 10  1  0  0  0  0
  1 11  1  6  0  0  0
 11 12  1  0  0  0  0
 12 13  1  0  0  0  0
 13 14  1  0  0  0  0
M  END
>  <Name>
Pramipexole

>  <CAS>
104632-26-0

>  <Formula>
C10H17N3S

>  <MolWt>
211.33 

>  <Bioactivity>
Pramipexole is a medication indicated for treating Parkinson's disease and restless legs syndrome (RLS). It is also sometimes used off-label as a treatment for cluster headache or to counteract the problems with low libido experienced by some users of SSRI antidepressant drugs. Pramipexole has shown robust effects on pilot studies in bipolar disorder. Pramipexole is classified as a non-ergoline dopamine agonist. 

>  <Pathways>
Neuroscience

>  <Target>
5-HT receptor antagonist;Adrenergic Receptor antagonist ;Dopamine Receptor

>  <Receptor>
5-HT receptor ;?-adrenergic receptor;Dopamine receptor

>  <Reference>
1. Kvernmo T, et al. Curr Top Med Chem. 2008;8(12):1049-67. 

$$$$
979-32-8
  Mrv1561503291623562D          

 26 29  0  0  1  0            999 V2000
   -0.5127   -2.9031    0.0000 C   0  0  1  0  0  0  0  0  0  0  0  0
   -0.7676   -2.1184    0.0000 C   0  0  1  0  0  0  0  0  0  0  0  0
   -0.2156   -1.5053    0.0000 C   0  0  1  0  0  0  0  0  0  0  0  0
   -0.4705   -0.7207    0.0000 C   0  0  0  0  0  0  0  0  0  0  0  0
   -1.2775   -0.5492    0.0000 C   0  0  0  0  0  0  0  0  0  0  0  0
   -1.5325    0.2354    0.0000 C   0  0  0  0  0  0  0  0  0  0  0  0
   -0.9804    0.8485    0.0000 C   0  0  0  0  0  0  0  0  0  0  0  0
   -1.2354    1.6331    0.0000 O   0  0  0  0  0  0  0  0  0  0  0  0
   -0.1735    0.6770    0.0000 C   0  0  0  0  0  0  0  0  0  0  0  0
    0.0815   -0.1076    0.0000 C   0  0  0  0  0  0  0  0  0  0  0  0
   -1.8296   -1.1623    0.0000 C   0  0  0  0  0  0  0  0  0  0  0  0
   -1.5746   -1.9469    0.0000 C   0  0  0  0  0  0  0  0  0  0  0  0
    0.5914   -1.6769    0.0000 C   0  0  0  0  0  0  0  0  0  0  0  0
    0.8463   -2.4615    0.0000 C   0  0  0  0  0  0  0  0  0  0  0  0
    0.2943   -3.0746    0.0000 C   0  0  2  0  0  0  0  0  0  0  0  0
    0.3805   -3.8951    0.0000 C   0  0  1  0  0  0  0  0  0  0  0  0
    1.0950   -4.3076    0.0000 O   0  0  0  0  0  0  0  0  0  0  0  0
    1.8094   -3.8951    0.0000 C   0  0  0  0  0  0  0  0  0  0  0  0
    2.5239   -4.3076    0.0000 C   0  0  0  0  0  0  0  0  0  0  0  0
    3.2384   -3.8951    0.0000 C   0  0  0  0  0  0  0  0  0  0  0  0
    3.9529   -4.3076    0.0000 C   0  0  0  0  0  0  0  0  0  0  0  0
    4.6673   -3.8951    0.0000 C   0  0  0  0  0  0  0  0  0  0  0  0
    1.8094   -3.0701    0.0000 O   0  0  0  0  0  0  0  0  0  0  0  0
   -0.3732   -4.2306    0.0000 C   0  0  0  0  0  0  0  0  0  0  0  0
   -0.9252   -3.6175    0.0000 C   0  0  0  0  0  0  0  0  0  0  0  0
    1.0789   -3.3295    0.0000 C   0  0  0  0  0  0  0  0  0  0  0  0
  1  2  1  0  0  0  0
  2  3  1  0  0  0  0
  3  4  1  0  0  0  0
  4  5  2  0  0  0  0
  5  6  1  0  0  0  0
  6  7  2  0  0  0  0
  7  8  1  0  0  0  0
  7  9  1  0  0  0  0
  9 10  2  0  0  0  0
  4 10  1  0  0  0  0
  5 11  1  0  0  0  0
 11 12  1  0  0  0  0
  2 12  1  6  0  0  0
  3 13  1  1  0  0  0
 13 14  1  0  0  0  0
 14 15  1  0  0  0  0
  1 15  1  0  0  0  0
 15 16  1  0  0  0  0
 16 17  1  1  0  0  0
 17 18  1  0  0  0  0
 18 19  1  0  0  0  0
 19 20  1  0  0  0  0
 20 21  1  0  0  0  0
 21 22  1  0  0  0  0
 18 23  2  0  0  0  0
 16 24  1  0  0  0  0
 24 25  1  0  0  0  0
  1 25  1  1  0  0  0
 15 26  1  1  0  0  0
M  END
>  <Name>
Estradiol valerate

>  <CAS>
979-32-8

>  <Formula>
C23H32O3

>  <MolWt>
356.51 

>  <Bioactivity>
Estradiol is a synthetic ester used to treat menopausal symptoms and hormone deficiencies.

>  <Pathways>
Endocrinology/ Hormones

>  <Target>
Androgen Receptor agonist

>  <Receptor>
Androgen Receptor

>  <Reference>
1. Takabe K, et al. J Biol Chem, 2010, 285(14), 10477-10486.

$$$$
111974-69-7
  Mrv1561503291623562D          

 27 30  0  0  0  0            999 V2000
   -4.9811    4.9727    0.0000 C   0  0  0  0  0  0  0  0  0  0  0  0
   -4.7975    5.7770    0.0000 C   0  0  0  0  0  0  0  0  0  0  0  0
   -5.4023    6.3381    0.0000 C   0  0  0  0  0  0  0  0  0  0  0  0
   -6.1906    6.0950    0.0000 C   0  0  0  0  0  0  0  0  0  0  0  0
   -6.3742    5.2907    0.0000 C   0  0  0  0  0  0  0  0  0  0  0  0
   -5.7694    4.7295    0.0000 C   0  0  0  0  0  0  0  0  0  0  0  0
   -5.8311    3.9068    0.0000 C   0  0  0  0  0  0  0  0  0  0  0  0
   -6.5127    3.4421    0.0000 N   0  0  0  0  0  0  0  0  0  0  0  0
   -7.3011    3.6853    0.0000 C   0  0  0  0  0  0  0  0  0  0  0  0
   -7.8155    3.0402    0.0000 C   0  0  0  0  0  0  0  0  0  0  0  0
   -8.6312    3.1632    0.0000 C   0  0  0  0  0  0  0  0  0  0  0  0
   -8.9326    3.9312    0.0000 C   0  0  0  0  0  0  0  0  0  0  0  0
   -8.4183    4.5762    0.0000 C   0  0  0  0  0  0  0  0  0  0  0  0
   -7.6025    4.4532    0.0000 C   0  0  0  0  0  0  0  0  0  0  0  0
   -7.1900    5.1677    0.0000 S   0  0  0  0  0  0  0  0  0  0  0  0
   -5.1166    3.4943    0.0000 N   0  0  0  0  0  0  0  0  0  0  0  0
   -4.4021    3.9068    0.0000 C   0  0  0  0  0  0  0  0  0  0  0  0
   -3.6877    3.4943    0.0000 C   0  0  0  0  0  0  0  0  0  0  0  0
   -3.6877    2.6693    0.0000 N   0  0  0  0  0  0  0  0  0  0  0  0
   -2.9732    2.2568    0.0000 C   0  0  0  0  0  0  0  0  0  0  0  0
   -2.2587    2.6693    0.0000 C   0  0  0  0  0  0  0  0  0  0  0  0
   -1.5443    2.2568    0.0000 O   0  0  0  0  0  0  0  0  0  0  0  0
   -0.8298    2.6693    0.0000 C   0  0  0  0  0  0  0  0  0  0  0  0
   -0.1153    2.2568    0.0000 C   0  0  0  0  0  0  0  0  0  0  0  0
    0.5992    2.6693    0.0000 O   0  0  0  0  0  0  0  0  0  0  0  0
   -4.4021    2.2568    0.0000 C   0  0  0  0  0  0  0  0  0  0  0  0
   -5.1166    2.6693    0.0000 C   0  0  0  0  0  0  0  0  0  0  0  0
  1  2  2  0  0  0  0
  2  3  1  0  0  0  0
  3  4  2  0  0  0  0
  4  5  1  0  0  0  0
  5  6  2  0  0  0  0
  1  6  1  0  0  0  0
  6  7  1  0  0  0  0
  7  8  2  0  0  0  0
  8  9  1  0  0  0  0
  9 10  2  0  0  0  0
 10 11  1  0  0  0  0
 11 12  2  0  0  0  0
 12 13  1  0  0  0  0
 13 14  2  0  0  0  0
  9 14  1  0  0  0  0
 14 15  1  0  0  0  0
  5 15  1  0  0  0  0
  7 16  1  0  0  0  0
 16 17  1  0  0  0  0
 17 18  1  0  0  0  0
 18 19  1  0  0  0  0
 19 20  1  0  0  0  0
 20 21  1  0  0  0  0
 21 22  1  0  0  0  0
 22 23  1  0  0  0  0
 23 24  1  0  0  0  0
 24 25  1  0  0  0  0
 19 26  1  0  0  0  0
 26 27  1  0  0  0  0
 16 27  1  0  0  0  0
M  END
>  <Name>
Quetiapin

>  <CAS>
111974-69-7

>  <Formula>
C21H25N3O2S

>  <MolWt>
383.51 

>  <Bioactivity>
Quetiapine is indicated for the treatment of schizophrenia as well as for the treatment of acute manic episodes associated with bipolar I disorder. The antipsychotic effect of quetiapine is thought by some to be mediated through antagonist activity at dopamine and serotonin receptors. Specifically the D1 and D2 dopamine, the alpha 1 adrenoreceptor and alpha 2 adrenoreceptor, and 5-HT1A and 5-HT2 serotonin receptor subtypes are antagonized. Quetiapine also has an antagonistic effect on the histamine H1 receptor. 

>  <Pathways>
Neuroscience;GPCR/G protein

>  <Target>
Histamine Receptor antagonist;Dopamine Receptor antagonist;5-HT receptor antagonist;AChR antagonist;Adrenergic Receptor antagonist

>  <Receptor>
Histamine H1 receptor;Dopamine receptor;5-HT receptor ;Muscarinic AChR;Adrenergic receptor

>  <Reference>
1. Nasrallah HA. Mol Psychiatry. 2008 Jan;13(1):27-35.

$$$$
34661-75-1
  Mrv1561503291623562D          

 28 30  0  0  0  0            999 V2000
   -4.2868   -3.3000    0.0000 C   0  0  0  0  0  0  0  0  0  0  0  0
   -3.5724   -3.7125    0.0000 C   0  0  0  0  0  0  0  0  0  0  0  0
   -2.8579   -3.3000    0.0000 N   0  0  0  0  0  0  0  0  0  0  0  0
   -2.8579   -2.4750    0.0000 C   0  0  0  0  0  0  0  0  0  0  0  0
   -2.1434   -2.0625    0.0000 C   0  0  0  0  0  0  0  0  0  0  0  0
   -1.4289   -2.4750    0.0000 N   0  0  0  0  0  0  0  0  0  0  0  0
   -0.7145   -2.0625    0.0000 C   0  0  0  0  0  0  0  0  0  0  0  0
   -0.0000   -2.4750    0.0000 C   0  0  0  0  0  0  0  0  0  0  0  0
    0.7145   -2.0625    0.0000 C   0  0  0  0  0  0  0  0  0  0  0  0
    1.4289   -2.4750    0.0000 N   0  0  0  0  0  0  0  0  0  0  0  0
    2.1434   -2.0625    0.0000 C   0  0  0  0  0  0  0  0  0  0  0  0
    2.1434   -1.2375    0.0000 C   0  0  0  0  0  0  0  0  0  0  0  0
    2.8579   -0.8250    0.0000 C   0  0  0  0  0  0  0  0  0  0  0  0
    2.8579    0.0000    0.0000 O   0  0  0  0  0  0  0  0  0  0  0  0
    3.5724   -1.2375    0.0000 N   0  0  0  0  0  0  0  0  0  0  0  0
    3.5724   -2.0625    0.0000 C   0  0  0  0  0  0  0  0  0  0  0  0
    2.8579   -2.4750    0.0000 N   0  0  0  0  0  0  0  0  0  0  0  0
    2.8579   -3.3000    0.0000 C   0  0  0  0  0  0  0  0  0  0  0  0
    4.2868   -2.4750    0.0000 O   0  0  0  0  0  0  0  0  0  0  0  0
    4.2868   -0.8250    0.0000 C   0  0  0  0  0  0  0  0  0  0  0  0
   -1.4289   -3.3000    0.0000 C   0  0  0  0  0  0  0  0  0  0  0  0
   -2.1434   -3.7125    0.0000 C   0  0  0  0  0  0  0  0  0  0  0  0
   -3.5724   -4.5375    0.0000 C   0  0  0  0  0  0  0  0  0  0  0  0
   -4.2868   -4.9500    0.0000 C   0  0  0  0  0  0  0  0  0  0  0  0
   -5.0013   -4.5375    0.0000 C   0  0  0  0  0  0  0  0  0  0  0  0
   -5.0013   -3.7125    0.0000 C   0  0  0  0  0  0  0  0  0  0  0  0
   -2.8579   -4.9500    0.0000 O   0  0  0  0  0  0  0  0  0  0  0  0
   -2.8579   -5.7750    0.0000 C   0  0  0  0  0  0  0  0  0  0  0  0
  1  2  2  0  0  0  0
  2  3  1  0  0  0  0
  3  4  1  0  0  0  0
  4  5  1  0  0  0  0
  5  6  1  0  0  0  0
  6  7  1  0  0  0  0
  7  8  1  0  0  0  0
  8  9  1  0  0  0  0
  9 10  1  0  0  0  0
 10 11  1  0  0  0  0
 11 12  2  0  0  0  0
 12 13  1  0  0  0  0
 13 14  2  0  0  0  0
 13 15  1  0  0  0  0
 15 16  1  0  0  0  0
 16 17  1  0  0  0  0
 11 17  1  0  0  0  0
 17 18  1  0  0  0  0
 16 19  2  0  0  0  0
 15 20  1  0  0  0  0
  6 21  1  0  0  0  0
 21 22  1  0  0  0  0
  3 22  1  0  0  0  0
  2 23  1  0  0  0  0
 23 24  2  0  0  0  0
 24 25  1  0  0  0  0
 25 26  2  0  0  0  0
  1 26  1  0  0  0  0
 23 27  1  0  0  0  0
 27 28  1  0  0  0  0
M  END
>  <Name>
Urapidil

>  <CAS>
34661-75-1

>  <Formula>
C20H30ClN5O3

>  <MolWt>
387.48 

>  <Bioactivity>
Urapidil is a sympatholytic antihypertensive drug. It acts as an ?1-adrenoceptor antagonist and as an 5-HT1A receptor agonist.

>  <Pathways>
Neuroscience;GPCR/G protein

>  <Target>
5-HT receptor antagonist;Adrenergic Receptor antagonist

>  <Receptor>
5-HT receptor;?-adrenergic receptor

>  <Reference>
1. Ramage AG. Br J Pharmacol. 1991 Apr;102(4):998-1002.

$$$$
58581-89-8
  Mrv1561503291623562D          

 29 30  0  0  0  0            999 V2000
    0.4125    0.0000    0.0000 H   0  3  0  0  0  0  0  0  0  0  0  0
    3.0127   -1.1070    0.0000 C   0  0  0  0  0  0  0  0  0  0  0  0
    3.7272   -0.6945    0.0000 C   0  0  0  0  0  0  0  0  0  0  0  0
    3.7272    0.1305    0.0000 C   0  0  0  0  0  0  0  0  0  0  0  0
    3.0127    0.5430    0.0000 C   0  0  0  0  0  0  0  0  0  0  0  0
    2.2982    0.1305    0.0000 C   0  0  0  0  0  0  0  0  0  0  0  0
    2.2982   -0.6945    0.0000 C   0  0  0  0  0  0  0  0  0  0  0  0
    4.4416    0.5430    0.0000 C   0  0  0  0  0  0  0  0  0  0  0  0
    5.1561    0.1305    0.0000 N   0  0  0  0  0  0  0  0  0  0  0  0
    5.1561   -0.6945    0.0000 N   0  0  0  0  0  0  0  0  0  0  0  0
    4.4416   -1.1070    0.0000 C   0  0  0  0  0  0  0  0  0  0  0  0
    4.4416   -1.9320    0.0000 O   0  0  0  0  0  0  0  0  0  0  0  0
    5.8706   -1.1070    0.0000 C   0  0  0  0  0  0  0  0  0  0  0  0
    6.5522   -0.6423    0.0000 C   0  0  0  0  0  0  0  0  0  0  0  0
    7.3406   -0.8855    0.0000 C   0  0  0  0  0  0  0  0  0  0  0  0
    7.6420   -1.6534    0.0000 N   0  0  0  0  0  0  0  0  0  0  0  0
    7.2295   -2.3679    0.0000 C   0  0  0  0  0  0  0  0  0  0  0  0
    6.4137   -2.4909    0.0000 C   0  0  0  0  0  0  0  0  0  0  0  0
    5.8089   -1.9297    0.0000 C   0  0  0  0  0  0  0  0  0  0  0  0
    8.4647   -1.7151    0.0000 C   0  0  0  0  0  0  0  0  0  0  0  0
    4.4416    1.3680    0.0000 C   0  0  0  0  0  0  0  0  0  0  0  0
    5.1561    1.7805    0.0000 C   0  0  0  0  0  0  0  0  0  0  0  0
    5.1561    2.6055    0.0000 C   0  0  0  0  0  0  0  0  0  0  0  0
    5.8706    3.0180    0.0000 C   0  0  0  0  0  0  0  0  0  0  0  0
    6.5850    2.6055    0.0000 C   0  0  0  0  0  0  0  0  0  0  0  0
    7.2995    3.0180    0.0000 Cl  0  0  0  0  0  0  0  0  0  0  0  0
    6.5850    1.7805    0.0000 C   0  0  0  0  0  0  0  0  0  0  0  0
    5.8706    1.3680    0.0000 C   0  0  0  0  0  0  0  0  0  0  0  0
   -0.4125    0.0000    0.0000 Cl  0  5  0  0  0  0  0  0  0  0  0  0
  2  3  2  0  0  0  0
  3  4  1  0  0  0  0
  4  5  2  0  0  0  0
  5  6  1  0  0  0  0
  6  7  2  0  0  0  0
  2  7  1  0  0  0  0
  4  8  1  0  0  0  0
  8  9  2  0  0  0  0
  9 10  1  0  0  0  0
 10 11  1  0  0  0  0
  3 11  1  0  0  0  0
 11 12  2  0  0  0  0
 10 13  1  0  0  0  0
 13 14  1  0  0  0  0
 14 15  1  0  0  0  0
 15 16  1  0  0  0  0
 16 17  1  0  0  0  0
 17 18  1  0  0  0  0
 18 19  1  0  0  0  0
 13 19  1  0  0  0  0
 16 20  1  0  0  0  0
  8 21  1  0  0  0  0
 21 22  1  0  0  0  0
 22 23  2  0  0  0  0
 23 24  1  0  0  0  0
 24 25  2  0  0  0  0
 25 26  1  0  0  0  0
 25 27  1  0  0  0  0
 27 28  2  0  0  0  0
 22 28  1  0  0  0  0
M  CHG  2   1   1  29  -1
M  END
>  <Name>
Azelastine

>  <CAS>
58581-89-8

>  <Formula>
C22H25Cl2N3O

>  <MolWt>
381.90 

>  <Bioactivity>
Azelastine HCl is a potent, second-generation, selective, histamine antagonist.

>  <Pathways>
Neuroscience

>  <Target>
Histamine Receptor antagonist

>  <Receptor>
Histamine H1 receptor

>  <Reference>
1. Casale TB. J Allergy Clin Immunol. 1989 Apr;83(4):771-6. 

$$$$
T0212
  Mrv1561503291623562D          

 26 27  0  0  0  0            999 V2000
    1.4289   -2.4750    0.0000 C   0  0  0  0  0  0  0  0  0  0  0  0
    1.4289   -3.3000    0.0000 C   0  0  0  0  0  0  0  0  0  0  0  0
    0.7145   -3.7125    0.0000 C   0  0  0  0  0  0  0  0  0  0  0  0
   -0.0000   -3.3000    0.0000 C   0  0  0  0  0  0  0  0  0  0  0  0
   -0.0000   -2.4750    0.0000 C   0  0  0  0  0  0  0  0  0  0  0  0
    0.7145   -2.0625    0.0000 C   0  0  0  0  0  0  0  0  0  0  0  0
    0.7145   -1.2375    0.0000 C   0  0  0  0  0  0  0  0  0  0  0  0
   -0.0000   -0.8250    0.0000 C   0  0  0  0  0  0  0  0  0  0  0  0
   -0.7145   -1.2375    0.0000 C   0  0  0  0  0  0  0  0  0  0  0  0
   -1.4289   -0.8250    0.0000 C   0  0  0  0  0  0  0  0  0  0  0  0
   -1.4289    0.0000    0.0000 C   0  0  0  0  0  0  0  0  0  0  0  0
   -0.7145    0.4125    0.0000 C   0  0  0  0  0  0  0  0  0  0  0  0
   -0.0000    0.0000    0.0000 C   0  0  0  0  0  0  0  0  0  0  0  0
    0.7145    0.4125    0.0000 O   0  0  0  0  0  0  0  0  0  0  0  0
   -0.7145    1.2375    0.0000 C   0  0  0  0  0  0  0  0  0  0  0  0
   -2.1434    0.4125    0.0000 C   0  0  0  0  0  0  0  0  0  0  0  0
   -2.1434   -1.2375    0.0000 O   0  0  0  0  0  0  0  0  0  0  0  0
   -0.7145   -2.0625    0.0000 C   0  0  0  0  0  0  0  0  0  0  0  0
    1.4289   -0.8250    0.0000 C   0  0  0  0  0  0  0  0  0  0  0  0
    2.1434   -1.2375    0.0000 C   0  0  0  0  0  0  0  0  0  0  0  0
    2.8579   -0.8250    0.0000 C   0  0  0  0  0  0  0  0  0  0  0  0
    3.5724   -1.2375    0.0000 C   0  0  0  0  0  0  0  0  0  0  0  0
    4.2868   -0.8250    0.0000 C   0  0  0  0  0  0  0  0  0  0  0  0
    5.0013   -1.2375    0.0000 C   0  0  0  0  0  0  0  0  0  0  0  0
    5.7158   -0.8250    0.0000 O   0  0  0  0  0  0  0  0  0  0  0  0
    5.0013   -2.0625    0.0000 O   0  0  0  0  0  0  0  0  0  0  0  0
  1  2  2  0  0  0  0
  2  3  1  0  0  0  0
  3  4  2  0  0  0  0
  4  5  1  0  0  0  0
  5  6  2  0  0  0  0
  1  6  1  0  0  0  0
  6  7  1  0  0  0  0
  7  8  1  0  0  0  0
  8  9  2  0  0  0  0
  9 10  1  0  0  0  0
 10 11  1  0  0  0  0
 11 12  2  0  0  0  0
 12 13  1  0  0  0  0
  8 13  1  0  0  0  0
 13 14  2  0  0  0  0
 12 15  1  0  0  0  0
 11 16  1  0  0  0  0
 10 17  2  0  0  0  0
  9 18  1  0  0  0  0
  7 19  1  0  0  0  0
 19 20  1  0  0  0  0
 20 21  1  0  0  0  0
 21 22  1  0  0  0  0
 22 23  1  0  0  0  0
 23 24  1  0  0  0  0
 24 25  1  0  0  0  0
 24 26  2  0  0  0  0
M  END
>  <Name>
Seratrodast

>  <CAS>
112665-43-7

>  <Formula>
C22H26O4

>  <MolWt>
354.44 

>  <Bioactivity>
Seratrodast (INN) is a thromboxane A2 (TXA2) receptor (TP receptor) antagonist used primarily in the treatment of asthma. It was the first TP receptor antagonist that was developed as an anti-asthmatic drug and received marketing approval in Japan in 1997.

>  <Pathways>
Angiogenesis; Neuroscience

>  <Target>
TXA2 Receptor antagonist; COX inhibitor

>  <Receptor>
TXA2R;Prostaglandin G/H synthase

>  <Reference>
1. Endo S, Akiyama K. Nihon Rinsho. 1996 Nov;54(11):3045-8.

$$$$
T1018
  Mrv1561503291623562D          

 26 29  0  0  1  0            999 V2000
    0.7475   -2.9779    0.0000 C   0  0  1  0  0  0  0  0  0  0  0  0
    1.5596   -2.8327    0.0000 C   0  0  1  0  0  0  0  0  0  0  0  0
    2.0914   -3.4634    0.0000 C   0  0  1  0  0  0  0  0  0  0  0  0
    2.9035   -3.3182    0.0000 C   0  0  2  0  0  0  0  0  0  0  0  0
    3.1838   -2.5422    0.0000 C   0  0  0  0  0  0  0  0  0  0  0  0
    3.9960   -2.3970    0.0000 C   0  0  0  0  0  0  0  0  0  0  0  0
    4.5278   -3.0277    0.0000 C   0  0  0  0  0  0  0  0  0  0  0  0
    5.3399   -2.8825    0.0000 O   0  0  0  0  0  0  0  0  0  0  0  0
    4.2475   -3.8037    0.0000 C   0  0  0  0  0  0  0  0  0  0  0  0
    3.4354   -3.9489    0.0000 C   0  0  0  0  0  0  0  0  0  0  0  0
    2.6520   -1.9115    0.0000 C   0  0  0  0  0  0  0  0  0  0  0  0
    1.8399   -2.0567    0.0000 C   0  0  0  0  0  0  0  0  0  0  0  0
    2.6232   -4.0941    0.0000 C   0  0  0  0  0  0  0  0  0  0  0  0
    1.8111   -4.2393    0.0000 C   0  0  0  0  0  0  0  0  0  0  0  0
    2.3429   -4.8700    0.0000 O   0  0  0  0  0  0  0  0  0  0  0  0
    0.9990   -4.3845    0.0000 C   0  0  0  0  0  0  0  0  0  0  0  0
    0.4672   -3.7538    0.0000 C   0  0  2  0  0  0  0  0  0  0  0  0
   -0.3574   -3.7270    0.0000 C   0  0  2  0  0  0  0  0  0  0  0  0
   -1.1695   -3.8722    0.0000 C   0  0  0  0  0  0  0  0  0  0  0  0
   -1.7013   -3.2415    0.0000 C   0  0  0  0  0  0  0  0  0  0  0  0
   -2.5134   -3.3867    0.0000 O   0  0  0  0  0  0  0  0  0  0  0  0
   -1.4498   -4.6481    0.0000 O   0  0  0  0  0  0  0  0  0  0  0  0
   -0.2978   -4.5498    0.0000 O   0  0  0  0  0  0  0  0  0  0  0  0
   -0.5867   -2.9345    0.0000 C   0  0  0  0  0  0  0  0  0  0  0  0
    0.0962   -2.4715    0.0000 C   0  0  0  0  0  0  0  0  0  0  0  0
    0.1073   -4.4962    0.0000 C   0  0  0  0  0  0  0  0  0  0  0  0
  1  2  1  0  0  0  0
  2  3  1  0  0  0  0
  3  4  1  0  0  0  0
  4  5  1  0  0  0  0
  5  6  2  0  0  0  0
  6  7  1  0  0  0  0
  7  8  2  0  0  0  0
  7  9  1  0  0  0  0
  9 10  2  0  0  0  0
  4 10  1  0  0  0  0
  5 11  1  0  0  0  0
 11 12  1  0  0  0  0
  2 12  1  6  0  0  0
  4 13  1  1  0  0  0
  3 14  1  1  0  0  0
 14 15  2  0  0  0  0
 14 16  1  0  0  0  0
 16 17  1  0  0  0  0
  1 17  1  0  0  0  0
 17 18  1  0  0  0  0
 18 19  1  1  0  0  0
 19 20  1  0  0  0  0
 20 21  1  0  0  0  0
 19 22  2  0  0  0  0
 18 23  1  6  0  0  0
 18 24  1  0  0  0  0
 24 25  1  0  0  0  0
  1 25  1  1  0  0  0
 17 26  1  1  0  0  0
M  END
>  <Name>
Prednisone

>  <CAS>
53-03-2

>  <Formula>
C21H26O5

>  <MolWt>
358.43 

>  <Bioactivity>
Prednisone (Adasone) is a synthetic corticosteroid agent that is particularly effective as an immunosuppressant compound.

>  <Pathways>
Endocrinology/ Hormones

>  <Target>
Glucocorticoid Receptor agonist;MRP inhibitor

>  <Receptor>
Glucocorticoid receptor;MRP1

>  <Reference>
1. Lanza L, et al. Clin Exp Immunol, 1996, 103(3), 482-490.

$$$$
67392-87-4
  Mrv1561503291623562D          

 27 33  0  0  1  0            999 V2000
    1.5632   -3.7809    0.0000 C   0  0  2  0  0  0  0  0  0  0  0  0
    2.3574   -4.0039    0.0000 C   0  0  2  0  0  0  0  0  0  0  0  0
    2.8150   -3.3174    0.0000 C   0  0  2  0  0  0  0  0  0  0  0  0
    3.6383   -3.3705    0.0000 C   0  0  1  0  0  0  0  0  0  0  0  0
    4.0040   -4.1100    0.0000 C   0  0  1  0  0  0  0  0  0  0  0  0
    4.8273   -4.1630    0.0000 C   0  0  2  0  0  0  0  0  0  0  0  0
    5.2849   -3.4765    0.0000 C   0  0  0  0  0  0  0  0  0  0  0  0
    6.1082   -3.5295    0.0000 C   0  0  0  0  0  0  0  0  0  0  0  0
    6.4739   -4.2690    0.0000 C   0  0  0  0  0  0  0  0  0  0  0  0
    7.2972   -4.3220    0.0000 O   0  0  0  0  0  0  0  0  0  0  0  0
    6.0164   -4.9555    0.0000 C   0  0  0  0  0  0  0  0  0  0  0  0
    5.1931   -4.9025    0.0000 C   0  0  0  0  0  0  0  0  0  0  0  0
    4.9192   -2.7370    0.0000 C   0  0  1  0  0  0  0  0  0  0  0  0
    4.0959   -2.6840    0.0000 C   0  0  2  0  0  0  0  0  0  0  0  0
    4.5534   -1.9975    0.0000 C   0  0  0  0  0  0  0  0  0  0  0  0
    4.3698   -4.8495    0.0000 C   0  0  0  0  0  0  0  0  0  0  0  0
    3.5465   -4.7965    0.0000 C   0  0  0  0  0  0  0  0  0  0  0  0
    2.7232   -4.7434    0.0000 C   0  0  0  0  0  0  0  0  0  0  0  0
    2.3035   -2.6701    0.0000 C   0  0  1  0  0  0  0  0  0  0  0  0
    1.5298   -2.9566    0.0000 C   0  0  2  0  0  0  0  0  0  0  0  0
    1.6686   -2.1433    0.0000 C   0  0  0  0  0  0  0  0  0  0  0  0
    2.0526   -4.7705    0.0000 C   0  0  0  0  0  0  0  0  0  0  0  0
    1.5965   -4.6052    0.0000 O   0  0  0  0  0  0  0  0  0  0  0  0
    0.8228   -4.8917    0.0000 C   0  0  0  0  0  0  0  0  0  0  0  0
    0.5998   -5.6859    0.0000 O   0  0  0  0  0  0  0  0  0  0  0  0
    0.3113   -4.2444    0.0000 C   0  0  0  0  0  0  0  0  0  0  0  0
    0.7689   -3.5579    0.0000 C   0  0  0  0  0  0  0  0  0  0  0  0
  1  2  1  0  0  0  0
  2  3  1  0  0  0  0
  3  4  1  0  0  0  0
  4  5  1  0  0  0  0
  5  6  1  0  0  0  0
  6  7  1  0  0  0  0
  7  8  2  0  0  0  0
  8  9  1  0  0  0  0
  9 10  2  0  0  0  0
  9 11  1  0  0  0  0
 11 12  1  0  0  0  0
  6 12  1  0  0  0  0
  7 13  1  0  0  0  0
 13 14  1  0  0  0  0
  4 14  1  6  0  0  0
 14 15  1  1  0  0  0
 13 15  1  1  0  0  0
  6 16  1  1  0  0  0
  5 17  1  1  0  0  0
 17 18  1  0  0  0  0
  2 18  1  0  0  0  0
  3 19  1  1  0  0  0
 19 20  1  0  0  0  0
  1 20  1  0  0  0  0
 20 21  1  1  0  0  0
 19 21  1  1  0  0  0
  2 22  1  1  0  0  0
  1 23  1  1  0  0  0
 23 24  1  0  0  0  0
 24 25  2  0  0  0  0
 24 26  1  0  0  0  0
 26 27  1  0  0  0  0
  1 27  1  0  0  0  0
M  END
>  <Name>
Drospirenone

>  <CAS>
67392-87-4

>  <Formula>
C24H30O3

>  <MolWt>
366.49 

>  <Bioactivity>
Drospirenone is a synthetic progestin that is an analog to spironolactone. It is found in a number of birth control formulations. Drospirenone differs from other synthetic progestins in that its pharmacological profile in preclinical studies shows it to be closer to the natural progesterone. As such it has anti-mineralocorticoid properties, counteracts the estrogen-stimulated activity of the renin-angiotensin-aldosterone system, and is not androgenic. It was shown in animal studies that drospirenone exhibits antiandrogenic activity judging from accessory sex gland growth in castrated, androgen-treated, juvenile rats. 

>  <Pathways>
Endocrinology/ Hormones

>  <Target>
Progesterone receptor agonist; Androgen receptor antagonist;COX inhibitor; Mineralocorticoid receptor antagonist

>  <Receptor>
Progesterone receptor; Androgen receptor; Prostaglandin G/H synthase 2; Mineralocorticoid receptor

>  <Reference>
1. Bray JD, et al. J Steroid Biochem Mol Biol. 2005 Dec;97(4):328-41.

$$$$
101152-94-7
  Mrv1561503291623562D          

 20 19  0  0  1  0            999 V2000
    0.3991   -0.4724    0.0000 C   0  0  0  0  0  0  0  0  0  0  0  0
   -0.0134   -1.1869    0.0000 C   0  0  0  0  0  0  0  0  0  0  0  0
    0.8116   -1.1869    0.0000 C   0  0  0  0  0  0  0  0  0  0  0  0
   -0.7279   -1.5994    0.0000 C   0  0  0  0  0  0  0  0  0  0  0  0
   -0.7279   -2.4244    0.0000 N   0  0  0  0  0  0  0  0  0  0  0  0
   -0.0741    0.2034    0.0000 C   0  0  0  0  0  0  0  0  0  0  0  0
    0.0265    1.0222    0.0000 O   0  0  0  0  0  0  0  0  0  0  0  0
   -0.8959    0.1315    0.0000 N   0  0  0  0  0  0  0  0  0  0  0  0
   -1.3691    0.8073    0.0000 C   0  0  0  0  0  0  0  0  0  0  0  0
   -2.1910    0.7353    0.0000 C   0  0  0  0  0  0  0  0  0  0  0  0
   -1.2446   -0.6163    0.0000 C   0  0  0  0  0  0  0  0  0  0  0  0
   -2.0665   -0.6882    0.0000 C   0  0  0  0  0  0  0  0  0  0  0  0
    0.8723    0.2034    0.0000 C   0  0  0  0  0  0  0  0  0  0  0  0
    0.5237    0.9511    0.0000 C   0  0  0  0  0  0  0  0  0  0  0  0
    0.9969    1.6269    0.0000 C   0  0  0  0  0  0  0  0  0  0  0  0
    1.8187    1.5550    0.0000 C   0  0  0  0  0  0  0  0  0  0  0  0
    2.1674    0.8073    0.0000 C   0  0  0  0  0  0  0  0  0  0  0  0
    1.6942    0.1315    0.0000 C   0  0  0  0  0  0  0  0  0  0  0  0
    5.3495    0.0000    0.0000 H   0  3  0  0  0  0  0  0  0  0  0  0
    4.5245    0.0000    0.0000 Cl  0  5  0  0  0  0  0  0  0  0  0  0
  1  2  1  0  0  0  0
  2  3  1  0  0  0  0
  1  3  1  0  0  0  0
  2  4  1  0  0  0  0
  4  5  1  0  0  0  0
  1  6  1  0  0  0  0
  6  7  2  0  0  0  0
  6  8  1  0  0  0  0
  8  9  1  0  0  0  0
  9 10  1  0  0  0  0
  8 11  1  0  0  0  0
 11 12  1  0  0  0  0
  1 13  1  0  0  0  0
 13 14  2  0  0  0  0
 14 15  1  0  0  0  0
 15 16  2  0  0  0  0
 16 17  1  0  0  0  0
 17 18  2  0  0  0  0
 13 18  1  0  0  0  0
M  CHG  2  19   1  20  -1
M  END
>  <Name>
Milnacipran HCl

>  <CAS>
101152-94-7

>  <Formula>
C15H23ClN2O

>  <MolWt>
282.81 

>  <Bioactivity>
Milnacipran hydrochloride is a serotonin-norepinephrine reuptake inhibitor (SNRI) used in the clinical treatment of fibromyalgia.

>  <Pathways>
Neuroscience

>  <Target>
GluR antagonist

>  <Receptor>
NMDA receptor?5-HT receptor

>  <Reference>
1. Chen C, et al. Bioorg Med Chem Lett, 2008, 18(4), 1346-1349.

$$$$
T0109
  Mrv1561503291623562D          

 17 18  0  0  0  0            999 V2000
   -0.2388   -4.7486    0.0000 O   0  3  0  0  0  0  0  0  0  0  0  0
   -1.0458   -4.9202    0.0000 N   0  0  0  0  0  0  0  0  0  0  0  0
   -1.4583   -4.2057    0.0000 N   0  0  0  0  0  0  0  0  0  0  0  0
   -2.2788   -4.1195    0.0000 N   0  0  0  0  0  0  0  0  0  0  0  0
   -2.7637   -4.7869    0.0000 C   0  0  0  0  0  0  0  0  0  0  0  0
   -3.5842   -4.7007    0.0000 C   0  0  0  0  0  0  0  0  0  0  0  0
   -3.9198   -3.9470    0.0000 O   0  0  0  0  0  0  0  0  0  0  0  0
   -3.4348   -3.2795    0.0000 C   0  0  0  0  0  0  0  0  0  0  0  0
   -2.6144   -3.3658    0.0000 C   0  0  0  0  0  0  0  0  0  0  0  0
   -0.9063   -3.5926    0.0000 C   0  0  0  0  0  0  0  0  0  0  0  0
   -0.1526   -3.9282    0.0000 C   0  0  0  0  0  0  0  0  0  0  0  0
    0.5619   -3.5157    0.0000 N   0  5  0  0  0  0  0  0  0  0  0  0
    1.2763   -3.9282    0.0000 C   0  0  0  0  0  0  0  0  0  0  0  0
    1.9908   -3.5157    0.0000 O   0  0  0  0  0  0  0  0  0  0  0  0
    2.7053   -3.9282    0.0000 C   0  0  0  0  0  0  0  0  0  0  0  0
    3.4197   -3.5157    0.0000 C   0  0  0  0  0  0  0  0  0  0  0  0
    1.2763   -4.7532    0.0000 O   0  0  0  0  0  0  0  0  0  0  0  0
  1  2  2  0  0  0  0
  2  3  1  0  0  0  0
  3  4  1  0  0  0  0
  4  5  1  0  0  0  0
  5  6  1  0  0  0  0
  6  7  1  0  0  0  0
  7  8  1  0  0  0  0
  8  9  1  0  0  0  0
  4  9  1  0  0  0  0
  3 10  1  0  0  0  0
 10 11  2  0  0  0  0
  1 11  1  0  0  0  0
 11 12  1  0  0  0  0
 12 13  1  0  0  0  0
 13 14  1  0  0  0  0
 14 15  1  0  0  0  0
 15 16  1  0  0  0  0
 13 17  2  0  0  0  0
M  CHG  2   1   1  12  -1
M  END
>  <Name>
Molsidomine

>  <CAS>
25717-80-0

>  <Formula>
C9H14N4O4

>  <MolWt>
242.23 

>  <Bioactivity>
A morpholinyl sydnone imine ethyl ester, having a nitrogen in place of the keto oxygen. It acts as NITRIC OXIDE DONORS and is a vasodilator that has been used in ANGINA PECTORIS.

>  <Pathways>
MAPK Signaling

>  <Target>
NO agonist

>  <Receptor>
NO Donor

>  <Reference>
1. Rosenkranz B, et al. Clin Pharmacokinet. 1996 May;30(5):372-84.

$$$$
T1466
  Mrv1561503291623562D          

 26 29  0  0  0  0            999 V2000
   -0.7145   -0.4125    0.0000 C   0  0  0  0  0  0  0  0  0  0  0  0
   -0.7145   -1.2375    0.0000 C   0  0  0  0  0  0  0  0  0  0  0  0
   -0.0000   -1.6500    0.0000 C   0  0  0  0  0  0  0  0  0  0  0  0
    0.7145   -1.2375    0.0000 C   0  0  0  0  0  0  0  0  0  0  0  0
    0.7145   -0.4125    0.0000 C   0  0  0  0  0  0  0  0  0  0  0  0
   -0.0000    0.0000    0.0000 C   0  0  0  0  0  0  0  0  0  0  0  0
   -0.0000    0.8250    0.0000 C   0  0  0  0  0  0  0  0  0  0  0  0
    0.7145    1.2375    0.0000 C   0  0  0  0  0  0  0  0  0  0  0  0
    1.4289    0.8250    0.0000 C   0  0  0  0  0  0  0  0  0  0  0  0
    1.4289    0.0000    0.0000 N   0  0  0  0  0  0  0  0  0  0  0  0
    2.1434   -0.4125    0.0000 C   0  0  0  0  0  0  0  0  0  0  0  0
    2.8579   -0.0000    0.0000 C   0  0  0  0  0  0  0  0  0  0  0  0
    2.1434   -1.2375    0.0000 C   0  0  0  0  0  0  0  0  0  0  0  0
    1.4289   -1.6500    0.0000 C   0  0  0  0  0  0  0  0  0  0  0  0
    0.7145    2.0625    0.0000 C   0  0  0  0  0  0  0  0  0  0  0  0
    1.4289    2.4750    0.0000 O   0  0  0  0  0  0  0  0  0  0  0  0
    0.0000    2.4750    0.0000 O   0  0  0  0  0  0  0  0  0  0  0  0
   -0.7145    1.2375    0.0000 O   0  0  0  0  0  0  0  0  0  0  0  0
   -0.0000   -2.4750    0.0000 N   0  0  0  0  0  0  0  0  0  0  0  0
    0.7145   -2.8875    0.0000 C   0  0  0  0  0  0  0  0  0  0  0  0
    0.7145   -3.7125    0.0000 C   0  0  0  0  0  0  0  0  0  0  0  0
    0.0000   -4.1250    0.0000 C   0  0  0  0  0  0  0  0  0  0  0  0
    0.0000   -4.9500    0.0000 O   0  0  0  0  0  0  0  0  0  0  0  0
   -0.7145   -3.7125    0.0000 C   0  0  0  0  0  0  0  0  0  0  0  0
   -0.7145   -2.8875    0.0000 C   0  0  0  0  0  0  0  0  0  0  0  0
   -1.4289   -1.6500    0.0000 F   0  0  0  0  0  0  0  0  0  0  0  0
  1  2  2  0  0  0  0
  2  3  1  0  0  0  0
  3  4  2  0  0  0  0
  4  5  1  0  0  0  0
  5  6  2  0  0  0  0
  1  6  1  0  0  0  0
  6  7  1  0  0  0  0
  7  8  1  0  0  0  0
  8  9  2  0  0  0  0
  9 10  1  0  0  0  0
  5 10  1  0  0  0  0
 10 11  1  0  0  0  0
 11 12  1  0  0  0  0
 11 13  1  0  0  0  0
 13 14  1  0  0  0  0
  4 14  1  0  0  0  0
  8 15  1  0  0  0  0
 15 16  1  0  0  0  0
 15 17  2  0  0  0  0
  7 18  2  0  0  0  0
  3 19  1  0  0  0  0
 19 20  1  0  0  0  0
 20 21  1  0  0  0  0
 21 22  1  0  0  0  0
 22 23  1  0  0  0  0
 22 24  1  0  0  0  0
 24 25  1  0  0  0  0
 19 25  1  0  0  0  0
  2 26  1  0  0  0  0
M  END
>  <Name>
Nadifloxacin

>  <CAS>
124858-35-1

>  <Formula>
C19H21FN2O4

>  <MolWt>
360.39 

>  <Bioactivity>
Nadifloxacin is a topical fluoroquinolone antibiotic for the treatment of acne vulgaris.

>  <Pathways>
Microbiology & Virology

>  <Target>
Antibiotic

>  <Receptor>
Others

>  <Reference>
1. Jacobs MR, et al. Expert Opin Pharmacother, 2006, 7(14), 1957-1966.

$$$$
6805-41-0
  Mrv1561503291623562D          

158172  0  0  1  0            999 V2000
   -2.6975   -1.2001    0.0000 C   0  0  1  0  0  0  0  0  0  0  0  0
   -1.8725   -1.2001    0.0000 C   0  0  1  0  0  0  0  0  0  0  0  0
   -1.4600   -0.4857    0.0000 C   0  0  0  0  0  0  0  0  0  0  0  0
   -0.6350   -0.4857    0.0000 C   0  0  2  0  0  0  0  0  0  0  0  0
   -0.2225   -1.2001    0.0000 C   0  0  0  0  0  0  0  0  0  0  0  0
    0.6025   -1.2001    0.0000 C   0  0  2  0  0  0  0  0  0  0  0  0
    1.0150   -0.4857    0.0000 C   0  0  0  0  0  0  0  0  0  0  0  0
    1.8400   -0.4857    0.0000 O   0  0  0  0  0  0  0  0  0  0  0  0
    2.2525    0.2288    0.0000 C   0  0  2  0  0  0  0  0  0  0  0  0
    1.8400    0.9433    0.0000 O   0  0  0  0  0  0  0  0  0  0  0  0
    2.2525    1.6578    0.0000 C   0  0  1  0  0  0  0  0  0  0  0  0
    3.0775    1.6578    0.0000 C   0  0  1  0  0  0  0  0  0  0  0  0
    3.4900    2.3722    0.0000 O   0  0  0  0  0  0  0  0  0  0  0  0
    4.3150    2.3722    0.0000 C   0  0  2  0  0  0  0  0  0  0  0  0
    4.7275    1.6578    0.0000 O   0  0  0  0  0  0  0  0  0  0  0  0
    5.5525    1.6578    0.0000 C   0  0  1  0  0  0  0  0  0  0  0  0
    5.9650    2.3722    0.0000 C   0  0  1  0  0  0  0  0  0  0  0  0
    6.7900    2.3722    0.0000 O   0  0  0  0  0  0  0  0  0  0  0  0
    5.5525    3.0867    0.0000 C   0  0  2  0  0  0  0  0  0  0  0  0
    5.9650    3.8012    0.0000 O   0  0  0  0  0  0  0  0  0  0  0  0
    4.7275    3.0867    0.0000 C   0  0  1  0  0  0  0  0  0  0  0  0
    4.3150    3.8012    0.0000 O   0  0  0  0  0  0  0  0  0  0  0  0
    6.2125    1.1908    0.0000 C   0  0  0  0  0  0  0  0  0  0  0  0
    7.0375    1.1908    0.0000 O   0  0  0  0  0  0  0  0  0  0  0  0
    3.4900    0.9433    0.0000 C   0  0  2  0  0  0  0  0  0  0  0  0
    4.3150    0.9433    0.0000 O   0  0  0  0  0  0  0  0  0  0  0  0
    3.0775    0.2288    0.0000 C   0  0  1  0  0  0  0  0  0  0  0  0
    3.4900   -0.4857    0.0000 O   0  0  0  0  0  0  0  0  0  0  0  0
    4.3150   -0.4857    0.0000 C   0  0  2  0  0  0  0  0  0  0  0  0
    4.7275    0.2288    0.0000 O   0  0  0  0  0  0  0  0  0  0  0  0
    5.5525    0.2288    0.0000 C   0  0  1  0  0  0  0  0  0  0  0  0
    5.9650   -0.4857    0.0000 C   0  0  1  0  0  0  0  0  0  0  0  0
    6.7900   -0.4857    0.0000 O   0  0  0  0  0  0  0  0  0  0  0  0
    5.5525   -1.2001    0.0000 C   0  0  2  0  0  0  0  0  0  0  0  0
    5.9650   -1.9146    0.0000 O   0  0  0  0  0  0  0  0  0  0  0  0
    4.7275   -1.2001    0.0000 C   0  0  1  0  0  0  0  0  0  0  0  0
    4.3150   -1.9146    0.0000 O   0  0  0  0  0  0  0  0  0  0  0  0
    5.9650    0.9433    0.0000 C   0  0  0  0  0  0  0  0  0  0  0  0
    6.7900    0.9433    0.0000 O   0  0  0  0  0  0  0  0  0  0  0  0
    1.8400    2.3722    0.0000 C   0  0  0  0  0  0  0  0  0  0  0  0
    1.0150    2.3722    0.0000 O   0  0  0  0  0  0  0  0  0  0  0  0
    2.2525    3.0867    0.0000 O   0  0  0  0  0  0  0  0  0  0  0  0
    0.6025    0.2288    0.0000 C   0  0  0  0  0  0  0  0  0  0  0  0
   -0.2225    0.2288    0.0000 C   0  0  0  0  0  0  0  0  0  0  0  0
    0.6313   -2.0246    0.0000 C   0  0  0  0  0  0  0  0  0  0  0  0
    1.3597   -2.4119    0.0000 O   0  0  0  0  0  0  0  0  0  0  0  0
    1.3021   -1.6373    0.0000 C   0  0  0  0  0  0  0  0  0  0  0  0
   -0.6350   -1.9146    0.0000 C   0  0  0  0  0  0  0  0  0  0  0  0
   -1.4600   -1.9146    0.0000 C   0  0  0  0  0  0  0  0  0  0  0  0
   -1.0475    0.2288    0.0000 C   0  0  0  0  0  0  0  0  0  0  0  0
   -1.8725    0.2288    0.0000 C   0  0  0  0  0  0  0  0  0  0  0  0
   -2.6975    0.2288    0.0000 C   0  0  0  0  0  0  0  0  0  0  0  0
   -3.1100   -0.4857    0.0000 C   0  0  0  0  0  0  0  0  0  0  0  0
   -3.9350   -0.4857    0.0000 C   0  0  0  0  0  0  0  0  0  0  0  0
   -4.3475   -1.2001    0.0000 C   0  0  1  0  0  0  0  0  0  0  0  0
   -3.9350   -1.9146    0.0000 C   0  0  2  0  0  0  0  0  0  0  0  0
   -4.3475   -2.6291    0.0000 O   0  0  0  0  0  0  0  0  0  0  0  0
   -3.1100   -1.9146    0.0000 C   0  0  0  0  0  0  0  0  0  0  0  0
   -5.1725   -1.2001    0.0000 C   0  0  1  0  0  0  0  0  0  0  0  0
   -5.5850   -1.9146    0.0000 O   0  0  0  0  0  0  0  0  0  0  0  0
   -6.4100   -1.9146    0.0000 C   0  0  0  0  0  0  0  0  0  0  0  0
   -6.8225   -2.6291    0.0000 O   0  0  0  0  0  0  0  0  0  0  0  0
   -6.8225   -1.2001    0.0000 C   0  0  0  0  0  0  0  0  0  0  0  0
   -5.5850   -0.4857    0.0000 C   0  0  2  0  0  0  0  0  0  0  0  0
   -6.4100   -0.4857    0.0000 O   0  0  0  0  0  0  0  0  0  0  0  0
   -6.8225    0.2288    0.0000 C   0  0  0  0  0  0  0  0  0  0  0  0
   -6.4100    0.9433    0.0000 O   0  0  0  0  0  0  0  0  0  0  0  0
   -7.6475    0.2288    0.0000 C   0  0  0  0  0  0  0  0  0  0  0  0
   -8.0600    0.9433    0.0000 C   0  0  0  0  0  0  0  0  0  0  0  0
   -8.8850    0.9433    0.0000 C   0  0  0  0  0  0  0  0  0  0  0  0
   -8.0600   -0.4857    0.0000 C   0  0  0  0  0  0  0  0  0  0  0  0
   -5.1725    0.2288    0.0000 C   0  0  0  0  0  0  0  0  0  0  0  0
   -4.3475    0.2288    0.0000 C   0  0  0  0  0  0  0  0  0  0  0  0
   -5.8722    0.6660    0.0000 C   0  0  0  0  0  0  0  0  0  0  0  0
   -5.2013    1.0533    0.0000 C   0  0  0  0  0  0  0  0  0  0  0  0
   -4.7600   -1.9146    0.0000 C   0  0  0  0  0  0  0  0  0  0  0  0
   -4.8463   -2.7351    0.0000 O   0  0  0  0  0  0  0  0  0  0  0  0
   -2.2850   -1.9146    0.0000 C   0  0  0  0  0  0  0  0  0  0  0  0
   -2.7838   -2.0206    0.0000 C   0  0  0  0  0  0  0  0  0  0  0  0
   14.7571   -1.1966    0.0000 C   0  0  1  0  0  0  0  0  0  0  0  0
   15.5821   -1.1966    0.0000 C   0  0  1  0  0  0  0  0  0  0  0  0
   15.9946   -0.4822    0.0000 C   0  0  0  0  0  0  0  0  0  0  0  0
   16.8196   -0.4822    0.0000 C   0  0  2  0  0  0  0  0  0  0  0  0
   17.2321   -1.1966    0.0000 C   0  0  0  0  0  0  0  0  0  0  0  0
   18.0571   -1.1966    0.0000 C   0  0  2  0  0  0  0  0  0  0  0  0
   18.4696   -0.4822    0.0000 C   0  0  0  0  0  0  0  0  0  0  0  0
   19.2946   -0.4822    0.0000 O   0  0  0  0  0  0  0  0  0  0  0  0
   19.7071    0.2323    0.0000 C   0  0  2  0  0  0  0  0  0  0  0  0
   19.2946    0.9468    0.0000 O   0  0  0  0  0  0  0  0  0  0  0  0
   19.7071    1.6612    0.0000 C   0  0  1  0  0  0  0  0  0  0  0  0
   20.5321    1.6612    0.0000 C   0  0  1  0  0  0  0  0  0  0  0  0
   20.9446    2.3757    0.0000 O   0  0  0  0  0  0  0  0  0  0  0  0
   21.7696    2.3757    0.0000 C   0  0  2  0  0  0  0  0  0  0  0  0
   22.1821    1.6612    0.0000 O   0  0  0  0  0  0  0  0  0  0  0  0
   23.0071    1.6612    0.0000 C   0  0  1  0  0  0  0  0  0  0  0  0
   23.4196    2.3757    0.0000 C   0  0  1  0  0  0  0  0  0  0  0  0
   24.2446    2.3757    0.0000 O   0  0  0  0  0  0  0  0  0  0  0  0
   23.0071    3.0902    0.0000 C   0  0  2  0  0  0  0  0  0  0  0  0
   23.4196    3.8047    0.0000 O   0  0  0  0  0  0  0  0  0  0  0  0
   22.1821    3.0902    0.0000 C   0  0  1  0  0  0  0  0  0  0  0  0
   21.7696    3.8047    0.0000 O   0  0  0  0  0  0  0  0  0  0  0  0
   23.1721    0.6993    0.0000 C   0  0  0  0  0  0  0  0  0  0  0  0
   23.9971    0.6993    0.0000 O   0  0  0  0  0  0  0  0  0  0  0  0
   20.9446    0.9468    0.0000 C   0  0  2  0  0  0  0  0  0  0  0  0
   21.7696    0.9468    0.0000 O   0  0  0  0  0  0  0  0  0  0  0  0
   20.5321    0.2323    0.0000 C   0  0  1  0  0  0  0  0  0  0  0  0
   20.9446   -0.4822    0.0000 O   0  0  0  0  0  0  0  0  0  0  0  0
   21.7696   -0.4822    0.0000 C   0  0  2  0  0  0  0  0  0  0  0  0
   22.1821    0.2323    0.0000 O   0  0  0  0  0  0  0  0  0  0  0  0
   23.0071    0.2323    0.0000 C   0  0  1  0  0  0  0  0  0  0  0  0
   23.4196   -0.4822    0.0000 C   0  0  1  0  0  0  0  0  0  0  0  0
   24.2446   -0.4822    0.0000 O   0  0  0  0  0  0  0  0  0  0  0  0
   23.0071   -1.1966    0.0000 C   0  0  2  0  0  0  0  0  0  0  0  0
   23.4196   -1.9111    0.0000 O   0  0  0  0  0  0  0  0  0  0  0  0
   22.1821   -1.1966    0.0000 C   0  0  1  0  0  0  0  0  0  0  0  0
   21.7696   -1.9111    0.0000 O   0  0  0  0  0  0  0  0  0  0  0  0
   23.4196    0.9468    0.0000 C   0  0  0  0  0  0  0  0  0  0  0  0
   24.2446    0.9468    0.0000 O   0  0  0  0  0  0  0  0  0  0  0  0
   19.2946    2.3757    0.0000 C   0  0  0  0  0  0  0  0  0  0  0  0
   18.4696    2.3757    0.0000 O   0  0  0  0  0  0  0  0  0  0  0  0
   19.7071    3.0902    0.0000 O   0  0  0  0  0  0  0  0  0  0  0  0
   18.0571    0.2323    0.0000 C   0  0  0  0  0  0  0  0  0  0  0  0
   17.2321    0.2323    0.0000 C   0  0  0  0  0  0  0  0  0  0  0  0
   18.0859   -2.0211    0.0000 C   0  0  0  0  0  0  0  0  0  0  0  0
   18.8143   -2.4085    0.0000 O   0  0  0  0  0  0  0  0  0  0  0  0
   18.7568   -1.6338    0.0000 C   0  0  0  0  0  0  0  0  0  0  0  0
   16.8196   -1.9111    0.0000 C   0  0  0  0  0  0  0  0  0  0  0  0
   15.9946   -1.9111    0.0000 C   0  0  0  0  0  0  0  0  0  0  0  0
   16.4071    0.2323    0.0000 C   0  0  0  0  0  0  0  0  0  0  0  0
   15.5821    0.2323    0.0000 C   0  0  0  0  0  0  0  0  0  0  0  0
   14.7571    0.2323    0.0000 C   0  0  0  0  0  0  0  0  0  0  0  0
   14.3446   -0.4822    0.0000 C   0  0  0  0  0  0  0  0  0  0  0  0
   13.5196   -0.4822    0.0000 C   0  0  0  0  0  0  0  0  0  0  0  0
   13.1071   -1.1966    0.0000 C   0  0  1  0  0  0  0  0  0  0  0  0
   13.5196   -1.9111    0.0000 C   0  0  2  0  0  0  0  0  0  0  0  0
   13.1071   -2.6256    0.0000 O   0  0  0  0  0  0  0  0  0  0  0  0
   14.3446   -1.9111    0.0000 C   0  0  0  0  0  0  0  0  0  0  0  0
   12.2821   -1.1966    0.0000 C   0  0  1  0  0  0  0  0  0  0  0  0
   11.8696   -1.9111    0.0000 O   0  0  0  0  0  0  0  0  0  0  0  0
   11.0446   -1.9111    0.0000 C   0  0  0  0  0  0  0  0  0  0  0  0
   10.6321   -2.6256    0.0000 O   0  0  0  0  0  0  0  0  0  0  0  0
   10.6321   -1.1966    0.0000 C   0  0  0  0  0  0  0  0  0  0  0  0
   11.8696   -0.4822    0.0000 C   0  0  2  0  0  0  0  0  0  0  0  0
   11.0446   -0.4822    0.0000 O   0  0  0  0  0  0  0  0  0  0  0  0
   10.6321    0.2323    0.0000 C   0  0  0  0  0  0  0  0  0  0  0  0
   11.0446    0.9468    0.0000 O   0  0  0  0  0  0  0  0  0  0  0  0
    9.8071    0.2323    0.0000 C   0  0  0  0  0  0  0  0  0  0  0  0
    9.3946    0.9468    0.0000 C   0  0  0  0  0  0  0  0  0  0  0  0
    9.8071    1.6612    0.0000 C   0  0  0  0  0  0  0  0  0  0  0  0
    9.3946   -0.4822    0.0000 C   0  0  0  0  0  0  0  0  0  0  0  0
   12.2821    0.2323    0.0000 C   0  0  0  0  0  0  0  0  0  0  0  0
   13.1071    0.2323    0.0000 C   0  0  0  0  0  0  0  0  0  0  0  0
   11.5825    0.6695    0.0000 C   0  0  0  0  0  0  0  0  0  0  0  0
   12.2533    1.0568    0.0000 C   0  0  0  0  0  0  0  0  0  0  0  0
   12.6946   -1.9111    0.0000 C   0  0  0  0  0  0  0  0  0  0  0  0
   12.6084   -2.7316    0.0000 O   0  0  0  0  0  0  0  0  0  0  0  0
   15.1696   -1.9111    0.0000 C   0  0  0  0  0  0  0  0  0  0  0  0
   14.6709   -2.0171    0.0000 C   0  0  0  0  0  0  0  0  0  0  0  0
  1  2  1  0  0  0  0
  2  3  1  0  0  0  0
  3  4  1  0  0  0  0
  4  5  1  0  0  0  0
  5  6  1  0  0  0  0
  6  7  1  0  0  0  0
  7  8  1  0  0  0  0
  9  8  1  6  0  0  0
  9 10  1  0  0  0  0
 10 11  1  0  0  0  0
 11 12  1  0  0  0  0
 12 13  1  1  0  0  0
 14 13  1  1  0  0  0
 14 15  1  0  0  0  0
 15 16  1  0  0  0  0
 16 17  1  0  0  0  0
 17 18  1  6  0  0  0
 17 19  1  0  0  0  0
 19 20  1  1  0  0  0
 19 21  1  0  0  0  0
 14 21  1  0  0  0  0
 21 22  1  6  0  0  0
 16 23  1  1  0  0  0
 23 24  1  0  0  0  0
 12 25  1  0  0  0  0
 25 26  1  6  0  0  0
 25 27  1  0  0  0  0
  9 27  1  0  0  0  0
 27 28  1  1  0  0  0
 29 28  1  6  0  0  0
 29 30  1  0  0  0  0
 30 31  1  0  0  0  0
 31 32  1  0  0  0  0
 32 33  1  1  0  0  0
 32 34  1  0  0  0  0
 34 35  1  6  0  0  0
 34 36  1  0  0  0  0
 29 36  1  0  0  0  0
 36 37  1  1  0  0  0
 31 38  1  6  0  0  0
 38 39  1  0  0  0  0
 11 40  1  6  0  0  0
 40 41  2  0  0  0  0
 40 42  1  0  0  0  0
  7 43  1  0  0  0  0
 43 44  1  0  0  0  0
  4 44  1  0  0  0  0
  6 45  1  6  0  0  0
 45 46  1  0  0  0  0
  6 47  1  1  0  0  0
  5 48  1  0  0  0  0
 48 49  1  0  0  0  0
  2 49  1  0  0  0  0
  4 50  1  6  0  0  0
  3 51  1  0  0  0  0
 51 52  1  0  0  0  0
 52 53  2  0  0  0  0
  1 53  1  0  0  0  0
 53 54  1  0  0  0  0
 54 55  1  0  0  0  0
 55 56  1  0  0  0  0
 56 57  1  1  0  0  0
 56 58  1  0  0  0  0
  1 58  1  0  0  0  0
 55 59  1  0  0  0  0
 59 60  1  1  0  0  0
 60 61  1  0  0  0  0
 61 62  2  0  0  0  0
 61 63  1  0  0  0  0
 59 64  1  0  0  0  0
 64 65  1  6  0  0  0
 65 66  1  0  0  0  0
 66 67  2  0  0  0  0
 66 68  1  0  0  0  0
 68 69  2  0  0  0  0
 69 70  1  0  0  0  0
 68 71  1  0  0  0  0
 64 72  1  0  0  0  0
 72 73  1  0  0  0  0
 54 73  1  0  0  0  0
 72 74  1  0  0  0  0
 72 75  1  0  0  0  0
 55 76  1  6  0  0  0
 76 77  1  0  0  0  0
  2 78  1  6  0  0  0
  1 79  1  1  0  0  0
 80 81  1  0  0  0  0
 81 82  1  0  0  0  0
 82 83  1  0  0  0  0
 83 84  1  0  0  0  0
 84 85  1  0  0  0  0
 85 86  1  0  0  0  0
 86 87  1  0  0  0  0
 88 87  1  6  0  0  0
 88 89  1  0  0  0  0
 89 90  1  0  0  0  0
 90 91  1  0  0  0  0
 91 92  1  1  0  0  0
 93 92  1  1  0  0  0
 93 94  1  0  0  0  0
 94 95  1  0  0  0  0
 95 96  1  0  0  0  0
 96 97  1  6  0  0  0
 96 98  1  0  0  0  0
 98 99  1  1  0  0  0
 98100  1  0  0  0  0
 93100  1  0  0  0  0
100101  1  6  0  0  0
 95102  1  1  0  0  0
102103  1  0  0  0  0
 91104  1  0  0  0  0
104105  1  6  0  0  0
104106  1  0  0  0  0
 88106  1  0  0  0  0
106107  1  1  0  0  0
108107  1  6  0  0  0
108109  1  0  0  0  0
109110  1  0  0  0  0
110111  1  0  0  0  0
111112  1  1  0  0  0
111113  1  0  0  0  0
113114  1  6  0  0  0
113115  1  0  0  0  0
108115  1  0  0  0  0
115116  1  1  0  0  0
110117  1  6  0  0  0
117118  1  0  0  0  0
 90119  1  6  0  0  0
119120  2  0  0  0  0
119121  1  0  0  0  0
 86122  1  0  0  0  0
122123  1  0  0  0  0
 83123  1  0  0  0  0
 85124  1  6  0  0  0
124125  1  0  0  0  0
 85126  1  1  0  0  0
 84127  1  0  0  0  0
127128  1  0  0  0  0
 81128  1  0  0  0  0
 83129  1  6  0  0  0
 82130  1  0  0  0  0
130131  1  0  0  0  0
131132  2  0  0  0  0
 80132  1  0  0  0  0
132133  1  0  0  0  0
133134  1  0  0  0  0
134135  1  0  0  0  0
135136  1  1  0  0  0
135137  1  0  0  0  0
 80137  1  0  0  0  0
134138  1  0  0  0  0
138139  1  1  0  0  0
139140  1  0  0  0  0
140141  2  0  0  0  0
140142  1  0  0  0  0
138143  1  0  0  0  0
143144  1  6  0  0  0
144145  1  0  0  0  0
145146  2  0  0  0  0
145147  1  0  0  0  0
147148  2  0  0  0  0
148149  1  0  0  0  0
147150  1  0  0  0  0
143151  1  0  0  0  0
151152  1  0  0  0  0
133152  1  0  0  0  0
151153  1  0  0  0  0
151154  1  0  0  0  0
134155  1  6  0  0  0
155156  1  0  0  0  0
 81157  1  6  0  0  0
 80158  1  1  0  0  0
M  END
>  <Name>
Escin

>  <CAS>
6805-41-0

>  <Formula>
C55H86O24

>  <MolWt>
1131.28 

>  <Bioactivity>
Pentacyclic triterpene saponins, biosynthesized from protoaescigenin and barringtogenol, occurring in the seeds of AESCULUS. It inhibits edema formation and decreases vascular fragility.  

>  <Pathways>
Others

>  <Target>
Others

>  <Receptor>
Others

>  <Reference>
1. Yu Z, Su P. Pharmazie. 2013 Jun;68(6):428-30.

$$$$
T1226
  Mrv1561503291623562D          

101103  0  0  0  0            999 V2000
    4.0310   -4.6083    0.0000 C   0  0  0  0  0  0  0  0  0  0  0  0
    4.7946   -4.2960    0.0000 C   0  0  0  0  0  0  0  0  0  0  0  0
    4.9059   -3.4786    0.0000 C   0  0  0  0  0  0  0  0  0  0  0  0
    4.2536   -2.9734    0.0000 C   0  0  0  0  0  0  0  0  0  0  0  0
    3.9987   -3.7580    0.0000 N   0  0  0  0  0  0  0  0  0  0  0  0
    3.1737   -3.7580    0.0000 C   0  0  0  0  0  0  0  0  0  0  0  0
    2.6888   -4.4255    0.0000 O   0  0  0  0  0  0  0  0  0  0  0  0
    2.9188   -2.9734    0.0000 C   0  0  0  0  0  0  0  0  0  0  0  0
    2.1573   -2.4885    0.0000 N   0  0  0  0  0  0  0  0  0  0  0  0
    2.1573   -1.6635    0.0000 C   0  0  0  0  0  0  0  0  0  0  0  0
    2.8717   -1.2510    0.0000 O   0  0  0  0  0  0  0  0  0  0  0  0
    1.4428   -1.2510    0.0000 C   0  0  0  0  0  0  0  0  0  0  0  0
    1.4428   -0.4260    0.0000 N   0  0  0  0  0  0  0  0  0  0  0  0
    0.7283   -0.0135    0.0000 C   0  0  0  0  0  0  0  0  0  0  0  0
    0.0139   -0.4260    0.0000 O   0  0  0  0  0  0  0  0  0  0  0  0
    0.7283    0.8115    0.0000 C   0  0  0  0  0  0  0  0  0  0  0  0
    0.0139    0.3990    0.0000 N   0  0  0  0  0  0  0  0  0  0  0  0
   -0.7006    0.8115    0.0000 C   0  0  0  0  0  0  0  0  0  0  0  0
   -0.7006    1.6365    0.0000 O   0  0  0  0  0  0  0  0  0  0  0  0
   -1.4151    0.3990    0.0000 C   0  0  0  0  0  0  0  0  0  0  0  0
   -2.1295    0.8115    0.0000 N   0  0  0  0  0  0  0  0  0  0  0  0
   -2.8440    0.3990    0.0000 C   0  0  0  0  0  0  0  0  0  0  0  0
   -2.8440   -0.4260    0.0000 O   0  0  0  0  0  0  0  0  0  0  0  0
   -3.5585    0.8115    0.0000 C   0  0  0  0  0  0  0  0  0  0  0  0
   -4.2730    0.3990    0.0000 N   0  0  0  0  0  0  0  0  0  0  0  0
   -4.9874    0.8115    0.0000 C   0  0  0  0  0  0  0  0  0  0  0  0
   -4.9874    1.6365    0.0000 O   0  0  0  0  0  0  0  0  0  0  0  0
   -5.7019    0.3990    0.0000 C   0  0  0  0  0  0  0  0  0  0  0  0
   -6.4164    0.8115    0.0000 N   0  0  0  0  0  0  0  0  0  0  0  0
   -6.4164    1.6365    0.0000 C   0  0  0  0  0  0  0  0  0  0  0  0
   -5.7019    2.0490    0.0000 O   0  0  0  0  0  0  0  0  0  0  0  0
   -7.1308    2.0490    0.0000 C   0  0  0  0  0  0  0  0  0  0  0  0
   -7.2171    2.8695    0.0000 N   0  0  0  0  0  0  0  0  0  0  0  0
   -8.0241    3.0410    0.0000 C   0  0  0  0  0  0  0  0  0  0  0  0
   -8.4366    2.3265    0.0000 S   0  0  0  0  0  0  0  0  0  0  0  0
   -7.8845    1.7134    0.0000 C   0  0  0  0  0  0  0  0  0  0  0  0
   -8.3596    3.7947    0.0000 C   0  0  0  0  0  0  0  0  0  0  0  0
   -7.8747    4.4621    0.0000 N   0  0  0  0  0  0  0  0  0  0  0  0
   -9.1801    3.8809    0.0000 C   0  0  0  0  0  0  0  0  0  0  0  0
   -9.5157    4.6346    0.0000 C   0  0  0  0  0  0  0  0  0  0  0  0
  -10.3361    4.7208    0.0000 C   0  0  0  0  0  0  0  0  0  0  0  0
   -9.6650    3.2135    0.0000 C   0  0  0  0  0  0  0  0  0  0  0  0
   -5.7019   -0.4260    0.0000 C   0  0  0  0  0  0  0  0  0  0  0  0
   -6.4164   -0.8385    0.0000 C   0  0  0  0  0  0  0  0  0  0  0  0
   -6.4164   -1.6635    0.0000 C   0  0  0  0  0  0  0  0  0  0  0  0
   -7.1308   -0.4260    0.0000 C   0  0  0  0  0  0  0  0  0  0  0  0
   -3.5585    1.6365    0.0000 C   0  0  0  0  0  0  0  0  0  0  0  0
   -2.8440    2.0490    0.0000 C   0  0  0  0  0  0  0  0  0  0  0  0
   -2.8440    2.8740    0.0000 C   0  0  0  0  0  0  0  0  0  0  0  0
   -2.1295    3.2865    0.0000 O   0  0  0  0  0  0  0  0  0  0  0  0
   -3.5585    3.2865    0.0000 O   0  0  0  0  0  0  0  0  0  0  0  0
   -1.4151   -0.4260    0.0000 C   0  0  0  0  0  0  0  0  0  0  0  0
   -0.7006   -0.8385    0.0000 C   0  0  0  0  0  0  0  0  0  0  0  0
   -0.7006   -1.6635    0.0000 C   0  0  0  0  0  0  0  0  0  0  0  0
   -2.1295   -0.8385    0.0000 C   0  0  0  0  0  0  0  0  0  0  0  0
    0.0139    1.2240    0.0000 C   0  0  0  0  0  0  0  0  0  0  0  0
    0.0139    2.0490    0.0000 C   0  0  0  0  0  0  0  0  0  0  0  0
    0.7283    2.4615    0.0000 C   0  0  0  0  0  0  0  0  0  0  0  0
    0.7283    3.2865    0.0000 C   0  0  0  0  0  0  0  0  0  0  0  0
    1.4428    3.6990    0.0000 N   0  0  0  0  0  0  0  0  0  0  0  0
    2.1573    3.2865    0.0000 C   0  0  0  0  0  0  0  0  0  0  0  0
    2.8717    3.6990    0.0000 O   0  0  0  0  0  0  0  0  0  0  0  0
    2.1573    2.4615    0.0000 C   0  0  0  0  0  0  0  0  0  0  0  0
    2.8717    2.0490    0.0000 N   0  0  0  0  0  0  0  0  0  0  0  0
    2.8717    1.2240    0.0000 C   0  0  0  0  0  0  0  0  0  0  0  0
    2.1573    0.8115    0.0000 O   0  0  0  0  0  0  0  0  0  0  0  0
    3.5862    0.8115    0.0000 C   0  0  0  0  0  0  0  0  0  0  0  0
    3.5862   -0.0135    0.0000 N   0  0  0  0  0  0  0  0  0  0  0  0
    4.3007   -0.4260    0.0000 C   0  0  0  0  0  0  0  0  0  0  0  0
    5.0152   -0.0135    0.0000 O   0  0  0  0  0  0  0  0  0  0  0  0
    4.3007   -1.2510    0.0000 C   0  0  0  0  0  0  0  0  0  0  0  0
    5.0152   -1.6635    0.0000 N   0  0  0  0  0  0  0  0  0  0  0  0
    5.0152   -2.4885    0.0000 C   0  0  0  0  0  0  0  0  0  0  0  0
    5.7384   -2.8854    0.0000 O   0  0  0  0  0  0  0  0  0  0  0  0
    5.0152   -0.8385    0.0000 C   0  0  0  0  0  0  0  0  0  0  0  0
    5.7296   -1.2510    0.0000 C   0  0  0  0  0  0  0  0  0  0  0  0
    6.4833   -0.9154    0.0000 N   0  0  0  0  0  0  0  0  0  0  0  0
    7.0353   -1.5285    0.0000 C   0  0  0  0  0  0  0  0  0  0  0  0
    6.6228   -2.2430    0.0000 N   0  0  0  0  0  0  0  0  0  0  0  0
    5.8159   -2.0715    0.0000 C   0  0  0  0  0  0  0  0  0  0  0  0
    4.3007    1.2240    0.0000 C   0  0  0  0  0  0  0  0  0  0  0  0
    4.3007    2.0490    0.0000 C   0  0  0  0  0  0  0  0  0  0  0  0
    3.2481    2.5521    0.0000 O   0  0  0  0  0  0  0  0  0  0  0  0
    5.0152    2.4615    0.0000 O   0  0  0  0  0  0  0  0  0  0  0  0
    2.8717    2.8740    0.0000 C   0  0  0  0  0  0  0  0  0  0  0  0
    3.5862    2.4615    0.0000 C   0  0  0  0  0  0  0  0  0  0  0  0
    4.3007    2.8740    0.0000 O   0  0  0  0  0  0  0  0  0  0  0  0
    3.5862    1.6365    0.0000 N   0  0  0  0  0  0  0  0  0  0  0  0
    0.7283   -1.6635    0.0000 C   0  0  0  0  0  0  0  0  0  0  0  0
    0.7283   -2.4885    0.0000 C   0  0  0  0  0  0  0  0  0  0  0  0
    0.0139   -2.9010    0.0000 C   0  0  0  0  0  0  0  0  0  0  0  0
   -0.7006   -2.4885    0.0000 N   0  0  0  0  0  0  0  0  0  0  0  0
    2.2665   -3.4786    0.0000 C   0  0  0  0  0  0  0  0  0  0  0  0
    1.5029   -3.1662    0.0000 C   0  0  0  0  0  0  0  0  0  0  0  0
    0.8507   -3.6714    0.0000 C   0  0  0  0  0  0  0  0  0  0  0  0
    2.3779   -4.2960    0.0000 C   0  0  0  0  0  0  0  0  0  0  0  0
    5.4469   -4.8012    0.0000 C   0  0  0  0  0  0  0  0  0  0  0  0
    5.3355   -5.6186    0.0000 C   0  0  0  0  0  0  0  0  0  0  0  0
    4.5719   -5.9309    0.0000 C   0  0  0  0  0  0  0  0  0  0  0  0
    3.9197   -5.4258    0.0000 C   0  0  0  0  0  0  0  0  0  0  0  0
    8.9211    0.0000    0.0000 Zn  0  0  0  0  0  0  0  0  0  0  0  0
  1  2  2  0  0  0  0
  2  3  1  0  0  0  0
  3  4  1  0  0  0  0
  4  5  1  0  0  0  0
  5  6  1  0  0  0  0
  6  7  2  0  0  0  0
  6  8  1  0  0  0  0
  8  9  1  0  0  0  0
  9 10  1  0  0  0  0
 10 11  2  0  0  0  0
 10 12  1  0  0  0  0
 12 13  1  0  0  0  0
 13 14  1  0  0  0  0
 14 15  2  0  0  0  0
 14 16  1  0  0  0  0
 16 17  1  0  0  0  0
 17 18  1  0  0  0  0
 18 19  2  0  0  0  0
 18 20  1  0  0  0  0
 20 21  1  0  0  0  0
 21 22  1  0  0  0  0
 22 23  2  0  0  0  0
 22 24  1  0  0  0  0
 24 25  1  0  0  0  0
 25 26  1  0  0  0  0
 26 27  2  0  0  0  0
 26 28  1  0  0  0  0
 28 29  1  0  0  0  0
 29 30  1  0  0  0  0
 30 31  2  0  0  0  0
 30 32  1  0  0  0  0
 32 33  1  0  0  0  0
 33 34  2  0  0  0  0
 34 35  1  0  0  0  0
 35 36  1  0  0  0  0
 32 36  1  0  0  0  0
 34 37  1  0  0  0  0
 37 38  1  0  0  0  0
 37 39  1  0  0  0  0
 39 40  1  0  0  0  0
 40 41  1  0  0  0  0
 39 42  1  0  0  0  0
 28 43  1  0  0  0  0
 43 44  1  0  0  0  0
 44 45  1  0  0  0  0
 44 46  1  0  0  0  0
 24 47  1  0  0  0  0
 47 48  1  0  0  0  0
 48 49  1  0  0  0  0
 49 50  2  0  0  0  0
 49 51  1  0  0  0  0
 20 52  1  0  0  0  0
 52 53  1  0  0  0  0
 53 54  1  0  0  0  0
 52 55  1  0  0  0  0
 16 56  1  0  0  0  0
 56 57  1  0  0  0  0
 57 58  1  0  0  0  0
 58 59  1  0  0  0  0
 59 60  1  0  0  0  0
 60 61  1  0  0  0  0
 61 62  2  0  0  0  0
 61 63  1  0  0  0  0
 63 64  1  0  0  0  0
 64 65  1  0  0  0  0
 65 66  2  0  0  0  0
 65 67  1  0  0  0  0
 67 68  1  0  0  0  0
 68 69  1  0  0  0  0
 69 70  2  0  0  0  0
 69 71  1  0  0  0  0
 71 72  1  0  0  0  0
 72 73  1  0  0  0  0
  4 73  1  0  0  0  0
 73 74  2  0  0  0  0
 71 75  1  0  0  0  0
 75 76  1  0  0  0  0
 76 77  1  0  0  0  0
 77 78  2  0  0  0  0
 78 79  1  0  0  0  0
 79 80  2  0  0  0  0
 76 80  1  0  0  0  0
 67 81  1  0  0  0  0
 81 82  1  0  0  0  0
 82 83  2  0  0  0  0
 82 84  1  0  0  0  0
 63 85  1  0  0  0  0
 85 86  1  0  0  0  0
 86 87  2  0  0  0  0
 86 88  1  0  0  0  0
 12 89  1  0  0  0  0
 89 90  1  0  0  0  0
 90 91  1  0  0  0  0
 91 92  1  0  0  0  0
  8 93  1  0  0  0  0
 93 94  1  0  0  0  0
 94 95  1  0  0  0  0
 93 96  1  0  0  0  0
  2 97  1  0  0  0  0
 97 98  2  0  0  0  0
 98 99  1  0  0  0  0
 99100  2  0  0  0  0
  1100  1  0  0  0  0
M  END
>  <Name>
Bacitracin

>  <CAS>
1405-87-4

>  <Formula>
C66H103N17O16S

>  <MolWt>
1422.73 

>  <Bioactivity>
Bacitracin is a mixture of related cyclic polypeptides produced by organisms of the licheniformis group of Bacillus subtilis var Tracy, which disrupts both gram positive and gram negative bacteria by interfering with cell wall and peptidoglycan synthesis.

>  <Pathways>
Microbiology & Virology

>  <Target>
Antibiotic

>  <Receptor>
Others

>  <Reference>
1. Toscano WA Jr, et al. Pharmacol Ther, 1982, 16(2), 199-210.

$$$$
T1452
  Mrv1561503291623562D          

 28 31  0  0  0  0            999 V2000
    3.2789    1.2375    0.0000 C   0  0  0  0  0  0  0  0  0  0  0  0
    3.9934    0.8250    0.0000 C   0  0  0  0  0  0  0  0  0  0  0  0
    4.7079    1.2375    0.0000 S   0  0  0  0  0  0  0  0  0  0  0  0
    4.7079    2.0625    0.0000 C   0  0  0  0  0  0  0  0  0  0  0  0
    3.9934    2.4750    0.0000 C   0  0  0  0  0  0  0  0  0  0  0  0
    3.9934    3.3000    0.0000 C   0  0  0  0  0  0  0  0  0  0  0  0
    4.7079    3.7125    0.0000 C   0  0  0  0  0  0  0  0  0  0  0  0
    5.4223    3.3000    0.0000 C   0  0  0  0  0  0  0  0  0  0  0  0
    5.4223    2.4750    0.0000 C   0  0  0  0  0  0  0  0  0  0  0  0
    6.1368    2.0625    0.0000 C   0  0  0  0  0  0  0  0  0  0  0  0
    6.1368    1.2375    0.0000 O   0  0  0  0  0  0  0  0  0  0  0  0
    6.8513    2.4750    0.0000 N   0  0  0  0  0  0  0  0  0  0  0  0
    7.5658    2.0625    0.0000 C   0  0  0  0  0  0  0  0  0  0  0  0
    3.9934    0.0000    0.0000 C   0  0  0  0  0  0  0  0  0  0  0  0
    3.2789   -0.4125    0.0000 C   0  0  0  0  0  0  0  0  0  0  0  0
    2.5645   -0.0000    0.0000 C   0  0  0  0  0  0  0  0  0  0  0  0
    2.5645    0.8250    0.0000 C   0  0  0  0  0  0  0  0  0  0  0  0
    1.7798    1.0799    0.0000 N   0  0  0  0  0  0  0  0  0  0  0  0
    1.2949    0.4125    0.0000 N   0  0  0  0  0  0  0  0  0  0  0  0
    1.7798   -0.2549    0.0000 C   0  0  0  0  0  0  0  0  0  0  0  0
    1.5249   -1.0396    0.0000 C   0  0  0  0  0  0  0  0  0  0  0  0
    2.0769   -1.6527    0.0000 C   0  0  0  0  0  0  0  0  0  0  0  0
    1.8220   -2.4373    0.0000 C   0  0  0  0  0  0  0  0  0  0  0  0
    2.3740   -3.0504    0.0000 C   0  0  0  0  0  0  0  0  0  0  0  0
    2.1191   -3.8350    0.0000 C   0  0  0  0  0  0  0  0  0  0  0  0
    1.3121   -4.0065    0.0000 C   0  0  0  0  0  0  0  0  0  0  0  0
    0.7601   -3.3934    0.0000 C   0  0  0  0  0  0  0  0  0  0  0  0
    1.0150   -2.6088    0.0000 N   0  0  0  0  0  0  0  0  0  0  0  0
  1  2  2  0  0  0  0
  2  3  1  0  0  0  0
  3  4  1  0  0  0  0
  4  5  2  0  0  0  0
  5  6  1  0  0  0  0
  6  7  2  0  0  0  0
  7  8  1  0  0  0  0
  8  9  2  0  0  0  0
  4  9  1  0  0  0  0
  9 10  1  0  0  0  0
 10 11  2  0  0  0  0
 10 12  1  0  0  0  0
 12 13  1  0  0  0  0
  2 14  1  0  0  0  0
 14 15  2  0  0  0  0
 15 16  1  0  0  0  0
 16 17  2  0  0  0  0
  1 17  1  0  0  0  0
 17 18  1  0  0  0  0
 18 19  1  0  0  0  0
 19 20  2  0  0  0  0
 16 20  1  0  0  0  0
 20 21  1  0  0  0  0
 21 22  2  0  0  0  0
 22 23  1  0  0  0  0
 23 24  2  0  0  0  0
 24 25  1  0  0  0  0
 25 26  2  0  0  0  0
 26 27  1  0  0  0  0
 27 28  2  0  0  0  0
 23 28  1  0  0  0  0
M  END
>  <Name>
Axitinib

>  <CAS>
319460-85-0

>  <Formula>
C22H18N4OS

>  <MolWt>
386.47 

>  <Bioactivity>
Axitinib is an oral, potent, and selective inhibitor of vascular endothelial growth factor receptors (VEGFR) 1, 2, and 3. Axitinib is marketed under the name Inlyta®, and if one previous systemic therapy for kidney cell cancer has failed, axitinib is indicated.

>  <Pathways>
Tyrosine Kinase/Adaptors

>  <Target>
c-Kit inhibitor; PDGFR inhibitor; VEGFR inhibitor

>  <Receptor>
c-Kit;PDGFR?;VEGFR1, VEGFR2, VEGFR3

>  <Reference>
1. Hu-Lowe DD, et al. Clin Cancer Res, 2008, 14(22), 7272-7283.

$$$$
T0141
  Mrv1561503291623562D          

 31 34  0  0  1  0            999 V2000
    0.5635   -0.9760    0.0000 C   0  0  2  0  0  0  0  0  0  0  0  0
    0.5635   -0.1510    0.0000 N   0  0  0  0  0  0  0  0  0  0  0  0
    1.2780    0.2615    0.0000 C   0  0  0  0  0  0  0  0  0  0  0  0
    1.9924   -0.1510    0.0000 C   0  0  0  0  0  0  0  0  0  0  0  0
    2.7069    0.2615    0.0000 C   0  0  0  0  0  0  0  0  0  0  0  0
    3.4214   -0.1510    0.0000 N   0  3  0  0  0  0  0  0  0  0  0  0
    4.1358    0.2615    0.0000 C   0  0  0  0  0  0  0  0  0  0  0  0
    4.8503   -0.1510    0.0000 C   0  0  0  0  0  0  0  0  0  0  0  0
    4.8503   -0.9760    0.0000 C   0  0  0  0  0  0  0  0  0  0  0  0
    5.5648   -1.3885    0.0000 C   0  0  0  0  0  0  0  0  0  0  0  0
    6.2793   -0.9760    0.0000 N   0  0  0  0  0  0  0  0  0  0  0  0
    5.5648   -2.2135    0.0000 O   0  0  0  0  0  0  0  0  0  0  0  0
    4.1358   -1.3885    0.0000 C   0  0  0  0  0  0  0  0  0  0  0  0
    3.4214   -0.9760    0.0000 C   0  0  0  0  0  0  0  0  0  0  0  0
    1.9924   -0.9760    0.0000 C   0  0  0  0  0  0  0  0  0  0  0  0
    1.2780   -1.3885    0.0000 S   0  0  0  0  0  0  0  0  0  0  0  0
    1.2780    1.0865    0.0000 C   0  0  0  0  0  0  0  0  0  0  0  0
    1.9924    1.4990    0.0000 O   0  0  0  0  0  0  0  0  0  0  0  0
    0.5635    1.4990    0.0000 O   0  5  0  0  0  0  0  0  0  0  0  0
   -0.2615   -0.1510    0.0000 C   0  0  0  0  0  0  0  0  0  0  0  0
   -0.8449    0.4324    0.0000 O   0  0  0  0  0  0  0  0  0  0  0  0
   -0.2615   -0.9760    0.0000 C   0  0  1  0  0  0  0  0  0  0  0  0
   -0.8449   -1.5593    0.0000 N   0  0  0  0  0  0  0  0  0  0  0  0
   -1.6418   -1.3458    0.0000 C   0  0  0  0  0  0  0  0  0  0  0  0
   -2.2251   -1.9292    0.0000 C   0  0  0  0  0  0  0  0  0  0  0  0
   -3.0220   -1.7157    0.0000 C   0  0  0  0  0  0  0  0  0  0  0  0
   -3.6632   -2.2348    0.0000 C   0  0  0  0  0  0  0  0  0  0  0  0
   -4.3551   -1.7855    0.0000 C   0  0  0  0  0  0  0  0  0  0  0  0
   -4.1415   -0.9886    0.0000 C   0  0  0  0  0  0  0  0  0  0  0  0
   -3.3177   -0.9455    0.0000 S   0  0  0  0  0  0  0  0  0  0  0  0
   -1.8553   -0.5489    0.0000 O   0  0  0  0  0  0  0  0  0  0  0  0
  1  2  1  6  0  0  0
  2  3  1  0  0  0  0
  3  4  2  0  0  0  0
  4  5  1  0  0  0  0
  5  6  1  0  0  0  0
  6  7  2  0  0  0  0
  7  8  1  0  0  0  0
  8  9  2  0  0  0  0
  9 10  1  0  0  0  0
 10 11  1  0  0  0  0
 10 12  2  0  0  0  0
  9 13  1  0  0  0  0
 13 14  2  0  0  0  0
  6 14  1  0  0  0  0
  4 15  1  0  0  0  0
 15 16  1  0  0  0  0
  1 16  1  0  0  0  0
  3 17  1  0  0  0  0
 17 18  2  0  0  0  0
 17 19  1  0  0  0  0
  2 20  1  0  0  0  0
 20 21  2  0  0  0  0
 20 22  1  0  0  0  0
  1 22  1  0  0  0  0
 22 23  1  6  0  0  0
 23 24  1  0  0  0  0
 24 25  1  0  0  0  0
 25 26  1  0  0  0  0
 26 27  2  0  0  0  0
 27 28  1  0  0  0  0
 28 29  2  0  0  0  0
 29 30  1  0  0  0  0
 26 30  1  0  0  0  0
 24 31  2  0  0  0  0
M  CHG  2   6   1  19  -1
M  END
>  <Name>
Cephalonium

>  <CAS>
5575-21-3

>  <Formula>
C20H18N4O5S2

>  <MolWt>
458.52 

>  <Bioactivity>
Cefalonium (INN) is a first-generation cephalosporin antibiotic.

>  <Pathways>
Microbiology & Virology

>  <Target>
Antibiotic

>  <Receptor>
Others

>  <Reference>
1. Demon D, et al. Vet Microbiol. 2012 Nov 9;160(1-2):141-50.

$$$$
T0158
  Mrv1561503291623562D          

 36 34  0  0  0  0            999 V2000
    0.4125    0.0000    0.0000 H   0  3  0  0  0  0  0  0  0  0  0  0
    3.5946    0.0000    0.0000 H   0  3  0  0  0  0  0  0  0  0  0  0
    2.3220   -4.5375    0.0000 C   0  0  0  0  0  0  0  0  0  0  0  0
    1.6076   -4.1250    0.0000 N   0  0  0  0  0  0  0  0  0  0  0  0
    0.8931   -4.5375    0.0000 C   0  0  0  0  0  0  0  0  0  0  0  0
    0.1786   -4.1250    0.0000 C   0  0  0  0  0  0  0  0  0  0  0  0
   -0.5359   -4.5375    0.0000 C   0  0  0  0  0  0  0  0  0  0  0  0
   -0.5359   -5.3625    0.0000 C   0  0  0  0  0  0  0  0  0  0  0  0
   -1.2503   -5.7750    0.0000 N   0  0  0  0  0  0  0  0  0  0  0  0
   -1.2503   -6.6000    0.0000 C   0  0  0  0  0  0  0  0  0  0  0  0
   -1.9648   -7.0125    0.0000 C   0  0  0  0  0  0  0  0  0  0  0  0
   -1.9648   -7.8375    0.0000 N   0  0  0  0  0  0  0  0  0  0  0  0
   -2.6793   -8.2500    0.0000 C   0  0  0  0  0  0  0  0  0  0  0  0
   -2.6793   -9.0750    0.0000 C   0  0  0  0  0  0  0  0  0  0  0  0
   -3.3937   -9.4875    0.0000 O   0  0  0  0  0  0  0  0  0  0  0  0
    0.1786   -5.7750    0.0000 C   0  0  0  0  0  0  0  0  0  0  0  0
    0.8931   -5.3625    0.0000 C   0  0  0  0  0  0  0  0  0  0  0  0
   -1.2503   -4.1250    0.0000 C   0  0  0  0  0  0  0  0  0  0  0  0
   -1.9648   -4.5375    0.0000 O   0  0  0  0  0  0  0  0  0  0  0  0
   -1.2503   -3.3000    0.0000 C   0  0  0  0  0  0  0  0  0  0  0  0
   -1.9648   -2.8875    0.0000 C   0  0  0  0  0  0  0  0  0  0  0  0
   -2.6793   -3.3000    0.0000 O   0  0  0  0  0  0  0  0  0  0  0  0
   -1.9648   -2.0625    0.0000 C   0  0  0  0  0  0  0  0  0  0  0  0
   -1.2503   -1.6500    0.0000 C   0  0  0  0  0  0  0  0  0  0  0  0
   -0.5359   -2.0625    0.0000 C   0  0  0  0  0  0  0  0  0  0  0  0
   -0.5359   -2.8875    0.0000 C   0  0  0  0  0  0  0  0  0  0  0  0
    0.1786   -3.3000    0.0000 C   0  0  0  0  0  0  0  0  0  0  0  0
    0.8931   -2.8875    0.0000 O   0  0  0  0  0  0  0  0  0  0  0  0
    0.1786   -1.6500    0.0000 O   0  0  0  0  0  0  0  0  0  0  0  0
    3.0365   -4.1250    0.0000 C   0  0  0  0  0  0  0  0  0  0  0  0
    3.7510   -4.5375    0.0000 N   0  0  0  0  0  0  0  0  0  0  0  0
    4.4654   -4.1250    0.0000 C   0  0  0  0  0  0  0  0  0  0  0  0
    5.1799   -4.5375    0.0000 C   0  0  0  0  0  0  0  0  0  0  0  0
    5.8944   -4.1250    0.0000 O   0  0  0  0  0  0  0  0  0  0  0  0
   -0.4125    0.0000    0.0000 Cl  0  5  0  0  0  0  0  0  0  0  0  0
    2.7696    0.0000    0.0000 Cl  0  5  0  0  0  0  0  0  0  0  0  0
  3  4  1  0  0  0  0
  4  5  1  0  0  0  0
  5  6  2  0  0  0  0
  6  7  1  0  0  0  0
  7  8  2  0  0  0  0
  8  9  1  0  0  0  0
  9 10  1  0  0  0  0
 10 11  1  0  0  0  0
 11 12  1  0  0  0  0
 12 13  1  0  0  0  0
 13 14  1  0  0  0  0
 14 15  1  0  0  0  0
  8 16  1  0  0  0  0
 16 17  2  0  0  0  0
  5 17  1  0  0  0  0
  7 18  1  0  0  0  0
 18 19  2  0  0  0  0
 18 20  1  0  0  0  0
 20 21  2  0  0  0  0
 21 22  1  0  0  0  0
 21 23  1  0  0  0  0
 23 24  2  0  0  0  0
 24 25  1  0  0  0  0
 25 26  2  0  0  0  0
 20 26  1  0  0  0  0
 26 27  1  0  0  0  0
  6 27  1  0  0  0  0
 27 28  2  0  0  0  0
 25 29  1  0  0  0  0
  3 30  1  0  0  0  0
 30 31  1  0  0  0  0
 31 32  1  0  0  0  0
 32 33  1  0  0  0  0
 33 34  1  0  0  0  0
M  CHG  4   1   1   2   1  35  -1  36  -1
M  END
>  <Name>
Mitoxantrone HCl

>  <CAS>
70476-82-3

>  <Formula>
C22H30Cl2N4O6

>  <MolWt>
517.40 

>  <Bioactivity>
An anthracenedione-derived antineoplastic agent. 

>  <Pathways>
DNA Damage/DNA Repair

>  <Target>
Topoisomerase inhibitor

>  <Receptor>
Topoisomerase II

>  <Reference>
1. Seitz M. Curr Opin Rheumatol, 1999, 11(3), 226-232.

$$$$
T1100
  Mrv1561503291623562D          

 82 82  0  0  0  0            999 V2000
    0.0000   -0.8250    0.0000 O   0  0  0  0  0  0  0  0  0  0  0  0
    0.0000    0.0000    0.0000 S   0  0  0  0  0  0  0  0  0  0  0  0
    0.0000    0.8250    0.0000 O   0  0  0  0  0  0  0  0  0  0  0  0
    0.8250   -0.0000    0.0000 O   0  0  0  0  0  0  0  0  0  0  0  0
   -0.8250    0.0000    0.0000 O   0  0  0  0  0  0  0  0  0  0  0  0
   12.8774    1.2904    0.0000 C   0  0  0  0  0  0  0  0  0  0  0  0
   12.7891    2.1106    0.0000 C   0  0  0  0  0  0  0  0  0  0  0  0
   12.0346    2.4443    0.0000 C   0  0  0  0  0  0  0  0  0  0  0  0
   11.3684    1.9577    0.0000 C   0  0  0  0  0  0  0  0  0  0  0  0
   12.0515    1.4952    0.0000 N   0  0  0  0  0  0  0  0  0  0  0  0
   11.8227    0.7026    0.0000 C   0  0  0  0  0  0  0  0  0  0  0  0
   12.3294    0.0515    0.0000 O   0  0  0  0  0  0  0  0  0  0  0  0
   10.9981    0.6752    0.0000 C   0  0  0  0  0  0  0  0  0  0  0  0
   10.3210    0.0781    0.0000 N   0  0  0  0  0  0  0  0  0  0  0  0
    9.5284    0.3069    0.0000 C   0  0  0  0  0  0  0  0  0  0  0  0
    9.3302    1.1078    0.0000 O   0  0  0  0  0  0  0  0  0  0  0  0
    8.9339   -0.2651    0.0000 C   0  0  0  0  0  0  0  0  0  0  0  0
    9.1321   -1.0660    0.0000 N   0  0  0  0  0  0  0  0  0  0  0  0
    8.5376   -1.6380    0.0000 C   0  0  0  0  0  0  0  0  0  0  0  0
    7.7450   -1.4092    0.0000 O   0  0  0  0  0  0  0  0  0  0  0  0
    8.7358   -2.4389    0.0000 C   0  0  0  0  0  0  0  0  0  0  0  0
    8.1413   -3.0109    0.0000 N   0  0  0  0  0  0  0  0  0  0  0  0
    7.3487   -2.7821    0.0000 C   0  0  0  0  0  0  0  0  0  0  0  0
    7.1505   -1.9812    0.0000 O   0  0  0  0  0  0  0  0  0  0  0  0
    6.7542   -3.3541    0.0000 C   0  0  0  0  0  0  0  0  0  0  0  0
    5.9616   -3.1253    0.0000 N   0  0  0  0  0  0  0  0  0  0  0  0
    5.3671   -3.6973    0.0000 C   0  0  0  0  0  0  0  0  0  0  0  0
    5.5652   -4.4982    0.0000 O   0  0  0  0  0  0  0  0  0  0  0  0
    4.5744   -3.4685    0.0000 C   0  0  0  0  0  0  0  0  0  0  0  0
    3.9800   -4.0406    0.0000 N   0  0  0  0  0  0  0  0  0  0  0  0
    3.1873   -3.8117    0.0000 C   0  0  0  0  0  0  0  0  0  0  0  0
    2.5929   -4.3838    0.0000 O   0  0  0  0  0  0  0  0  0  0  0  0
    4.3763   -2.6677    0.0000 C   0  0  0  0  0  0  0  0  0  0  0  0
    4.9708   -2.0956    0.0000 C   0  0  0  0  0  0  0  0  0  0  0  0
    5.7634   -2.3244    0.0000 N   0  0  0  0  0  0  0  0  0  0  0  0
    6.9523   -4.1550    0.0000 C   0  0  0  0  0  0  0  0  0  0  0  0
    7.7450   -4.3838    0.0000 C   0  0  0  0  0  0  0  0  0  0  0  0
    7.9431   -5.1846    0.0000 O   0  0  0  0  0  0  0  0  0  0  0  0
    9.5284   -2.6677    0.0000 C   0  0  0  0  0  0  0  0  0  0  0  0
   10.1229   -2.0956    0.0000 C   0  0  0  0  0  0  0  0  0  0  0  0
   10.9155   -2.3244    0.0000 N   0  0  0  0  0  0  0  0  0  0  0  0
    8.1413   -0.0363    0.0000 C   0  0  0  0  0  0  0  0  0  0  0  0
    7.5468   -0.6083    0.0000 C   0  0  0  0  0  0  0  0  0  0  0  0
    6.7542   -0.3795    0.0000 N   0  0  0  0  0  0  0  0  0  0  0  0
    6.1597   -0.9516    0.0000 C   0  0  0  0  0  0  0  0  0  0  0  0
    6.3579   -1.7524    0.0000 O   0  0  0  0  0  0  0  0  0  0  0  0
    5.3671   -0.7228    0.0000 C   0  0  0  0  0  0  0  0  0  0  0  0
    5.1689    0.0781    0.0000 N   0  0  0  0  0  0  0  0  0  0  0  0
    5.7634    0.6501    0.0000 C   0  0  0  0  0  0  0  0  0  0  0  0
    6.5560    0.4213    0.0000 O   0  0  0  0  0  0  0  0  0  0  0  0
    5.5652    1.4510    0.0000 C   0  0  0  0  0  0  0  0  0  0  0  0
    6.1597    2.0230    0.0000 N   0  0  0  0  0  0  0  0  0  0  0  0
    6.9523    1.7942    0.0000 C   0  0  0  0  0  0  0  0  0  0  0  0
    7.1505    0.9934    0.0000 O   0  0  0  0  0  0  0  0  0  0  0  0
    7.5468    2.3662    0.0000 C   0  0  0  0  0  0  0  0  0  0  0  0
    8.3395    2.1374    0.0000 N   0  0  0  0  0  0  0  0  0  0  0  0
    8.9339    2.7095    0.0000 C   0  0  0  0  0  0  0  0  0  0  0  0
    8.7358    3.5103    0.0000 O   0  0  0  0  0  0  0  0  0  0  0  0
    9.7266    2.4806    0.0000 C   0  0  0  0  0  0  0  0  0  0  0  0
   10.3210    3.0527    0.0000 N   0  0  0  0  0  0  0  0  0  0  0  0
   11.1137    2.8239    0.0000 C   0  0  0  0  0  0  0  0  0  0  0  0
   11.6956    3.4087    0.0000 O   0  0  0  0  0  0  0  0  0  0  0  0
    9.5284    3.2815    0.0000 C   0  0  0  0  0  0  0  0  0  0  0  0
   10.1229    3.8535    0.0000 C   0  0  0  0  0  0  0  0  0  0  0  0
    9.9247    4.6544    0.0000 C   0  0  0  0  0  0  0  0  0  0  0  0
   10.9155    3.6247    0.0000 C   0  0  0  0  0  0  0  0  0  0  0  0
    7.3487    3.1671    0.0000 C   0  0  0  0  0  0  0  0  0  0  0  0
    6.5560    3.3959    0.0000 C   0  0  0  0  0  0  0  0  0  0  0  0
    5.9616    2.8239    0.0000 N   0  0  0  0  0  0  0  0  0  0  0  0
    4.7726    1.6798    0.0000 C   0  0  0  0  0  0  0  0  0  0  0  0
    4.5744    2.4806    0.0000 C   0  0  0  0  0  0  0  0  0  0  0  0
    5.1689    3.0527    0.0000 N   0  0  0  0  0  0  0  0  0  0  0  0
    4.7726   -1.2948    0.0000 C   0  0  0  0  0  0  0  0  0  0  0  0
    3.9800   -1.0660    0.0000 C   0  0  0  0  0  0  0  0  0  0  0  0
    3.7818   -0.2651    0.0000 O   0  0  0  0  0  0  0  0  0  0  0  0
   11.3026   -0.0915    0.0000 C   0  0  0  0  0  0  0  0  0  0  0  0
   10.7907   -0.7386    0.0000 C   0  0  0  0  0  0  0  0  0  0  0  0
    9.9745   -0.6188    0.0000 N   0  0  0  0  0  0  0  0  0  0  0  0
   13.4553    2.5972    0.0000 C   0  0  0  0  0  0  0  0  0  0  0  0
   14.2098    2.2635    0.0000 C   0  0  0  0  0  0  0  0  0  0  0  0
   14.2981    1.4433    0.0000 C   0  0  0  0  0  0  0  0  0  0  0  0
   13.6319    0.9567    0.0000 C   0  0  0  0  0  0  0  0  0  0  0  0
  1  2  2  0  0  0  0
  2  3  2  0  0  0  0
  2  4  1  0  0  0  0
  2  5  1  0  0  0  0
  6  7  2  0  0  0  0
  7  8  1  0  0  0  0
  8  9  1  0  0  0  0
  9 10  1  0  0  0  0
 10 11  1  0  0  0  0
 11 12  2  0  0  0  0
 11 13  1  0  0  0  0
 13 14  1  0  0  0  0
 14 15  1  0  0  0  0
 15 16  2  0  0  0  0
 15 17  1  0  0  0  0
 17 18  1  0  0  0  0
 18 19  1  0  0  0  0
 19 20  2  0  0  0  0
 19 21  1  0  0  0  0
 21 22  1  0  0  0  0
 22 23  1  0  0  0  0
 23 24  2  0  0  0  0
 23 25  1  0  0  0  0
 25 26  1  0  0  0  0
 26 27  1  0  0  0  0
 27 28  2  0  0  0  0
 27 29  1  0  0  0  0
 29 30  1  0  0  0  0
 30 31  1  0  0  0  0
 31 32  2  0  0  0  0
 29 33  1  0  0  0  0
 33 34  1  0  0  0  0
 34 35  1  0  0  0  0
 25 36  1  0  0  0  0
 36 37  1  0  0  0  0
 37 38  1  0  0  0  0
 21 39  1  0  0  0  0
 39 40  1  0  0  0  0
 40 41  1  0  0  0  0
 17 42  1  0  0  0  0
 42 43  1  0  0  0  0
 43 44  1  0  0  0  0
 44 45  1  0  0  0  0
 45 46  2  0  0  0  0
 45 47  1  0  0  0  0
 47 48  1  0  0  0  0
 48 49  1  0  0  0  0
 49 50  2  0  0  0  0
 49 51  1  0  0  0  0
 51 52  1  0  0  0  0
 52 53  1  0  0  0  0
 53 54  2  0  0  0  0
 53 55  1  0  0  0  0
 55 56  1  0  0  0  0
 56 57  1  0  0  0  0
 57 58  2  0  0  0  0
 57 59  1  0  0  0  0
 59 60  1  0  0  0  0
 60 61  1  0  0  0  0
  9 61  1  0  0  0  0
 61 62  2  0  0  0  0
 59 63  1  0  0  0  0
 63 64  1  0  0  0  0
 64 65  1  0  0  0  0
 64 66  1  0  0  0  0
 55 67  1  0  0  0  0
 67 68  1  0  0  0  0
 68 69  1  0  0  0  0
 51 70  1  0  0  0  0
 70 71  1  0  0  0  0
 71 72  1  0  0  0  0
 47 73  1  0  0  0  0
 73 74  1  0  0  0  0
 74 75  1  0  0  0  0
 13 76  1  0  0  0  0
 76 77  1  0  0  0  0
 77 78  1  0  0  0  0
  7 79  1  0  0  0  0
 79 80  2  0  0  0  0
 80 81  1  0  0  0  0
 81 82  2  0  0  0  0
  6 82  1  0  0  0  0
M  END
>  <Name>
Polymyxin B sulfate

>  <CAS>
1405-20-5

>  <Formula>
C56H100N16O17S

>  <MolWt>
1301.56 

>  <Bioactivity>
Polymyxin B sulphate is a mixture of polymyxins B1 and B2, obtained from Bacillus polymyxa strains. They are basic polypeptides of about eight amino acids and have cationic detergent action on cell membranes. Polymyxin B is used for infections with gram-negative organisms, but may be neurotoxic and nephrotoxic.


>  <Pathways>
Microbiology & Virology

>  <Target>
Antibiotic

>  <Receptor>
Others

>  <Reference>
1. Severino P, et al. Colloids Surf B Biointerfaces. 2015 May 1;129:191-7. 

$$$$
T0215
  Mrv1561503291623562D          

 31 33  0  0  0  0            999 V2000
   -2.7658   -0.1504    0.0000 N   0  5  0  0  0  0  0  0  0  0  0  0
   -2.0983    0.3346    0.0000 C   0  0  0  0  0  0  0  0  0  0  0  0
   -1.4309   -0.1504    0.0000 N   0  0  0  0  0  0  0  0  0  0  0  0
   -1.6858   -0.9350    0.0000 N   0  0  0  0  0  0  0  0  0  0  0  0
   -2.5108   -0.9350    0.0000 N   0  0  0  0  0  0  0  0  0  0  0  0
   -2.0983    1.1596    0.0000 C   0  0  0  0  0  0  0  0  0  0  0  0
   -2.8128    1.5721    0.0000 C   0  0  0  0  0  0  0  0  0  0  0  0
   -2.8128    2.3971    0.0000 C   0  0  0  0  0  0  0  0  0  0  0  0
   -2.0983    2.8096    0.0000 C   0  0  0  0  0  0  0  0  0  0  0  0
   -1.3839    2.3971    0.0000 C   0  0  0  0  0  0  0  0  0  0  0  0
   -1.3839    1.5721    0.0000 C   0  0  0  0  0  0  0  0  0  0  0  0
   -0.6694    1.1596    0.0000 C   0  0  0  0  0  0  0  0  0  0  0  0
    0.0451    1.5721    0.0000 C   0  0  0  0  0  0  0  0  0  0  0  0
    0.7595    1.1596    0.0000 C   0  0  0  0  0  0  0  0  0  0  0  0
    0.7595    0.3346    0.0000 C   0  0  0  0  0  0  0  0  0  0  0  0
    1.4740   -0.0779    0.0000 C   0  0  0  0  0  0  0  0  0  0  0  0
    1.4740   -0.9029    0.0000 N   0  0  0  0  0  0  0  0  0  0  0  0
    2.1415   -1.3879    0.0000 C   0  0  0  0  0  0  0  0  0  0  0  0
    1.8865   -2.1725    0.0000 N   0  0  0  0  0  0  0  0  0  0  0  0
    1.0615   -2.1725    0.0000 C   0  0  0  0  0  0  0  0  0  0  0  0
    0.8066   -1.3879    0.0000 C   0  0  0  0  0  0  0  0  0  0  0  0
    0.0220   -1.1329    0.0000 C   0  0  0  0  0  0  0  0  0  0  0  0
   -0.5911   -1.6850    0.0000 O   0  0  0  0  0  0  0  0  0  0  0  0
    0.5766   -2.8399    0.0000 Cl  0  0  0  0  0  0  0  0  0  0  0  0
    2.9261   -1.1329    0.0000 C   0  0  0  0  0  0  0  0  0  0  0  0
    3.0976   -0.3260    0.0000 C   0  0  0  0  0  0  0  0  0  0  0  0
    3.8822   -0.0710    0.0000 C   0  0  0  0  0  0  0  0  0  0  0  0
    4.0538    0.7359    0.0000 C   0  0  0  0  0  0  0  0  0  0  0  0
    0.0451   -0.0779    0.0000 C   0  0  0  0  0  0  0  0  0  0  0  0
   -0.6694    0.3346    0.0000 C   0  0  0  0  0  0  0  0  0  0  0  0
    6.2930    0.0000    0.0000 K   0  3  0  0  0  0  0  0  0  0  0  0
  1  2  1  0  0  0  0
  2  3  2  0  0  0  0
  3  4  1  0  0  0  0
  4  5  2  0  0  0  0
  1  5  1  0  0  0  0
  2  6  1  0  0  0  0
  6  7  2  0  0  0  0
  7  8  1  0  0  0  0
  8  9  2  0  0  0  0
  9 10  1  0  0  0  0
 10 11  2  0  0  0  0
  6 11  1  0  0  0  0
 11 12  1  0  0  0  0
 12 13  2  0  0  0  0
 13 14  1  0  0  0  0
 14 15  2  0  0  0  0
 15 16  1  0  0  0  0
 16 17  1  0  0  0  0
 17 18  1  0  0  0  0
 18 19  2  0  0  0  0
 19 20  1  0  0  0  0
 20 21  2  0  0  0  0
 17 21  1  0  0  0  0
 21 22  1  0  0  0  0
 22 23  1  0  0  0  0
 20 24  1  0  0  0  0
 18 25  1  0  0  0  0
 25 26  1  0  0  0  0
 26 27  1  0  0  0  0
 27 28  1  0  0  0  0
 15 29  1  0  0  0  0
 29 30  2  0  0  0  0
 12 30  1  0  0  0  0
M  CHG  2   1  -1  31   1
M  END
>  <Name>
Losartan potassium

>  <CAS>
124750-99-8

>  <Formula>
C22H23ClN6O

>  <MolWt>
462.01 

>  <Bioactivity>
Losartan is an angiotensin-receptor blocker (ARB) that may be used alone or with other agents to treat hypertension. Losartan and its longer acting metabolite, E-3174, lower blood pressure by antagonizing the renin-angiotensin-aldosterone system (RAAS); they compete with angiotensin II for binding to the type-1 angiotensin II receptor (AT1) subtype and prevents the blood pressure increasing effects of angiotensin II. Unlike angiotensin-converting enzyme (ACE) inhibitors, ARBs do not have the adverse effect of dry cough. Losartan may be used to treat hypertension, isolated systolic hypertension, left ventricular hypertrophy and diabetic nephropathy. It may also be used as an alternative agent for the treatment of systolic dysfunction, myocardial infarction, coronary artery disease, and heart failure.

>  <Pathways>
Angiogenesis

>  <Target>
AGTR antagonist

>  <Receptor>
AGTR1

>  <Reference>
1. Burnier M, et al. Circulation, 2001, 103, 904-912.

$$$$
5104-49-4
  Mrv1561503291623562D          

 18 19  0  0  0  0            999 V2000
    1.4289   -2.4750    0.0000 C   0  0  0  0  0  0  0  0  0  0  0  0
    0.7145   -2.8875    0.0000 C   0  0  0  0  0  0  0  0  0  0  0  0
    0.7145   -3.7125    0.0000 C   0  0  0  0  0  0  0  0  0  0  0  0
    1.4289   -4.1250    0.0000 C   0  0  0  0  0  0  0  0  0  0  0  0
    1.4289   -4.9500    0.0000 C   0  0  0  0  0  0  0  0  0  0  0  0
    0.7145   -5.3625    0.0000 C   0  0  0  0  0  0  0  0  0  0  0  0
   -0.0000   -4.9500    0.0000 C   0  0  0  0  0  0  0  0  0  0  0  0
   -0.0000   -4.1250    0.0000 C   0  0  0  0  0  0  0  0  0  0  0  0
   -0.0000   -2.4750    0.0000 C   0  0  0  0  0  0  0  0  0  0  0  0
   -0.0000   -1.6500    0.0000 C   0  0  0  0  0  0  0  0  0  0  0  0
    0.7145   -1.2375    0.0000 C   0  0  0  0  0  0  0  0  0  0  0  0
    1.4289   -1.6500    0.0000 C   0  0  0  0  0  0  0  0  0  0  0  0
    0.7145   -0.4125    0.0000 C   0  0  0  0  0  0  0  0  0  0  0  0
    1.4289    0.0000    0.0000 C   0  0  0  0  0  0  0  0  0  0  0  0
    1.4289    0.8250    0.0000 O   0  0  0  0  0  0  0  0  0  0  0  0
    2.1434   -0.4125    0.0000 O   0  0  0  0  0  0  0  0  0  0  0  0
   -0.0000    0.0000    0.0000 C   0  0  0  0  0  0  0  0  0  0  0  0
   -0.7145   -2.8875    0.0000 F   0  0  0  0  0  0  0  0  0  0  0  0
  1  2  2  0  0  0  0
  2  3  1  0  0  0  0
  3  4  2  0  0  0  0
  4  5  1  0  0  0  0
  5  6  2  0  0  0  0
  6  7  1  0  0  0  0
  7  8  2  0  0  0  0
  3  8  1  0  0  0  0
  2  9  1  0  0  0  0
  9 10  2  0  0  0  0
 10 11  1  0  0  0  0
 11 12  2  0  0  0  0
  1 12  1  0  0  0  0
 11 13  1  0  0  0  0
 13 14  1  0  0  0  0
 14 15  1  0  0  0  0
 14 16  2  0  0  0  0
 13 17  1  0  0  0  0
  9 18  1  0  0  0  0
M  END
>  <Name>
Flurbiprofen

>  <CAS>
5104-49-4

>  <Formula>
C15H13FO2

>  <MolWt>
244.26 

>  <Bioactivity>
An anti-inflammatory analgesic and antipyretic of the phenylalkynoic acid series. It has been shown to reduce bone resorption in periodontal disease by inhibiting CARBONIC ANHYDRASE.

>  <Pathways>
Neuroscience

>  <Target>
COX inhibitor;MRP inhibitor

>  <Receptor>
Prostaglandin G/H synthase;MRP

>  <Reference>
1. Rieke CJ, et al. J Biol Chem. 1999 Jun 11; 274(24):17109-14. 

$$$$
T1538
  Mrv1561503291623562D          

 19 19  0  0  0  0            999 V2000
   -1.4289   -4.1250    0.0000 C   0  0  0  0  0  0  0  0  0  0  0  0
   -0.7145   -3.7125    0.0000 C   0  0  0  0  0  0  0  0  0  0  0  0
   -0.7145   -2.8875    0.0000 N   0  0  0  0  0  0  0  0  0  0  0  0
   -1.4289   -2.4750    0.0000 C   0  0  0  0  0  0  0  0  0  0  0  0
   -1.4289   -1.6500    0.0000 C   0  0  0  0  0  0  0  0  0  0  0  0
   -2.1434   -1.2375    0.0000 Cl  0  0  0  0  0  0  0  0  0  0  0  0
   -0.0000   -2.4750    0.0000 C   0  0  0  0  0  0  0  0  0  0  0  0
   -0.0000   -1.6500    0.0000 C   0  0  0  0  0  0  0  0  0  0  0  0
    0.7145   -1.2375    0.0000 Cl  0  0  0  0  0  0  0  0  0  0  0  0
   -0.0000   -4.1250    0.0000 C   0  0  0  0  0  0  0  0  0  0  0  0
   -0.0000   -4.9500    0.0000 C   0  0  0  0  0  0  0  0  0  0  0  0
   -0.7145   -5.3625    0.0000 C   0  0  0  0  0  0  0  0  0  0  0  0
   -1.4289   -4.9500    0.0000 C   0  0  0  0  0  0  0  0  0  0  0  0
   -0.7145   -6.1875    0.0000 C   0  0  0  0  0  0  0  0  0  0  0  0
   -0.0000   -6.6000    0.0000 C   0  0  0  0  0  0  0  0  0  0  0  0
   -0.0000   -7.4250    0.0000 C   0  0  0  0  0  0  0  0  0  0  0  0
    0.7145   -7.8375    0.0000 O   0  0  0  0  0  0  0  0  0  0  0  0
   -0.7145   -7.8375    0.0000 O   0  0  0  0  0  0  0  0  0  0  0  0
    0.7145   -6.1875    0.0000 N   0  0  0  0  0  0  0  0  0  0  0  0
  1  2  2  0  0  0  0
  2  3  1  0  0  0  0
  3  4  1  0  0  0  0
  4  5  1  0  0  0  0
  5  6  1  0  0  0  0
  3  7  1  0  0  0  0
  7  8  1  0  0  0  0
  8  9  1  0  0  0  0
  2 10  1  0  0  0  0
 10 11  2  0  0  0  0
 11 12  1  0  0  0  0
 12 13  2  0  0  0  0
  1 13  1  0  0  0  0
 12 14  1  0  0  0  0
 14 15  1  0  0  0  0
 15 16  1  0  0  0  0
 16 17  1  0  0  0  0
 16 18  2  0  0  0  0
 15 19  1  0  0  0  0
M  END
>  <Name>
Melphalan

>  <CAS>
148-82-3

>  <Formula>
C13H18Cl2N2O2

>  <MolWt>
305.21 

>  <Bioactivity>
An alkylating nitrogen mustard that is used as an antineoplastic in the form of the levo isomer - MELPHALAN, the racemic mixture - MERPHALAN, and the dextro isomer - MEDPHALAN; toxic to bone marrow, but little vesicant action; potential carcinogen.

>  <Pathways>
DNA Damage/DNA Repair

>  <Target>
DNA Alkylating

>  <Receptor>
DNA

>  <Reference>
1. Monahan SD, et al. Chem Biol. 2007 Sep; 14(9): 1065-77.

$$$$
T2383
  Mrv1561503291623562D          

 26 28  0  0  0  0            999 V2000
   -0.6606    0.9490    0.0000 C   0  0  0  0  0  0  0  0  0  0  0  0
   -1.2737    0.3969    0.0000 C   0  0  0  0  0  0  0  0  0  0  0  0
   -1.1875   -0.4235    0.0000 C   0  0  0  0  0  0  0  0  0  0  0  0
   -1.9412   -0.7591    0.0000 C   0  0  0  0  0  0  0  0  0  0  0  0
   -2.1961   -1.5437    0.0000 C   0  0  0  0  0  0  0  0  0  0  0  0
   -3.0031   -1.7152    0.0000 C   0  0  0  0  0  0  0  0  0  0  0  0
   -3.5551   -1.1022    0.0000 C   0  0  0  0  0  0  0  0  0  0  0  0
   -3.3002   -0.3175    0.0000 C   0  0  0  0  0  0  0  0  0  0  0  0
   -2.4932   -0.1460    0.0000 C   0  0  0  0  0  0  0  0  0  0  0  0
   -2.0807    0.5685    0.0000 N   0  0  0  0  0  0  0  0  0  0  0  0
   -0.4730   -0.8360    0.0000 C   0  0  0  0  0  0  0  0  0  0  0  0
   -0.4730   -1.6610    0.0000 C   0  0  0  0  0  0  0  0  0  0  0  0
    0.2415   -2.0735    0.0000 N   0  0  0  0  0  0  0  0  0  0  0  0
    0.9559   -1.6610    0.0000 C   0  0  0  0  0  0  0  0  0  0  0  0
    1.6704   -2.0735    0.0000 C   0  0  0  0  0  0  0  0  0  0  0  0
    2.3849   -1.6610    0.0000 C   0  0  0  0  0  0  0  0  0  0  0  0
    3.0993   -2.0735    0.0000 C   0  0  0  0  0  0  0  0  0  0  0  0
    3.0993   -2.8985    0.0000 C   0  0  0  0  0  0  0  0  0  0  0  0
    2.3849   -3.3110    0.0000 C   0  0  0  0  0  0  0  0  0  0  0  0
    1.6704   -2.8985    0.0000 C   0  0  0  0  0  0  0  0  0  0  0  0
    3.8138   -3.3110    0.0000 C   0  0  0  0  0  0  0  0  0  0  0  0
    3.8138   -4.1360    0.0000 C   0  0  0  0  0  0  0  0  0  0  0  0
    4.5283   -4.5485    0.0000 C   0  0  0  0  0  0  0  0  0  0  0  0
    5.2428   -4.1360    0.0000 O   0  0  0  0  0  0  0  0  0  0  0  0
    4.5283   -5.3735    0.0000 N   0  0  0  0  0  0  0  0  0  0  0  0
    5.2428   -5.7860    0.0000 O   0  0  0  0  0  0  0  0  0  0  0  0
  1  2  1  0  0  0  0
  2  3  2  0  0  0  0
  3  4  1  0  0  0  0
  4  5  2  0  0  0  0
  5  6  1  0  0  0  0
  6  7  2  0  0  0  0
  7  8  1  0  0  0  0
  8  9  2  0  0  0  0
  4  9  1  0  0  0  0
  9 10  1  0  0  0  0
  2 10  1  0  0  0  0
  3 11  1  0  0  0  0
 11 12  1  0  0  0  0
 12 13  1  0  0  0  0
 13 14  1  0  0  0  0
 14 15  1  0  0  0  0
 15 16  2  0  0  0  0
 16 17  1  0  0  0  0
 17 18  2  0  0  0  0
 18 19  1  0  0  0  0
 19 20  2  0  0  0  0
 15 20  1  0  0  0  0
 21 18  1  4  0  0  0
 21 22  2  0  0  0  0
 22 23  1  0  0  0  0
 23 24  2  0  0  0  0
 23 25  1  0  0  0  0
 25 26  1  0  0  0  0
M  END
>  <Name>
Panobinostat (LBH589)

>  <CAS>
404950-80-7

>  <Formula>
C21H23N3O2

>  <MolWt>
349.43 

>  <Bioactivity>
Panobinostat (LBH589) is a novel broad-spectrum HDAC inhibitor with IC50 of 5 nM in a cell-free assay. Phase 3.

>  <Pathways>
Chromatin/Epigenetic

>  <Target>
HDAC inhibitor

>  <Receptor>
HDACs

>  <Reference>
1. Scuto A, et al. Blood. 2008, 111(10), 5093-5100.

$$$$
5189-11-7
  Mrv1561503291623562D          

 30 32  0  0  0  0            999 V2000
    1.5592    0.0512    0.0000 C   0  0  0  0  0  0  0  0  0  0  0  0
    2.1865    0.5870    0.0000 C   0  0  0  0  0  0  0  0  0  0  0  0
    1.8707    1.3492    0.0000 S   0  0  0  0  0  0  0  0  0  0  0  0
    1.0483    1.2844    0.0000 C   0  0  0  0  0  0  0  0  0  0  0  0
    0.8557    0.4822    0.0000 C   0  0  0  0  0  0  0  0  0  0  0  0
    0.1085    0.1326    0.0000 C   0  0  0  0  0  0  0  0  0  0  0  0
    0.0993   -0.6924    0.0000 C   0  0  0  0  0  0  0  0  0  0  0  0
    0.8091   -1.1128    0.0000 C   0  0  0  0  0  0  0  0  0  0  0  0
    0.7999   -1.9378    0.0000 C   0  0  0  0  0  0  0  0  0  0  0  0
    0.0808   -2.3422    0.0000 N   0  0  0  0  0  0  0  0  0  0  0  0
   -0.6290   -1.9218    0.0000 C   0  0  0  0  0  0  0  0  0  0  0  0
   -0.6198   -1.0968    0.0000 C   0  0  0  0  0  0  0  0  0  0  0  0
    0.0716   -3.1672    0.0000 C   0  0  0  0  0  0  0  0  0  0  0  0
   -0.6308    0.4988    0.0000 C   0  0  0  0  0  0  0  0  0  0  0  0
   -1.2418   -0.0555    0.0000 C   0  0  0  0  0  0  0  0  0  0  0  0
   -2.0274    0.1965    0.0000 C   0  0  0  0  0  0  0  0  0  0  0  0
   -2.2019    1.0028    0.0000 C   0  0  0  0  0  0  0  0  0  0  0  0
   -1.5909    1.5571    0.0000 C   0  0  0  0  0  0  0  0  0  0  0  0
   -0.8053    1.3052    0.0000 C   0  0  0  0  0  0  0  0  0  0  0  0
   -0.2838    1.9444    0.0000 C   0  0  0  0  0  0  0  0  0  0  0  0
    0.5412    1.9352    0.0000 C   0  0  0  0  0  0  0  0  0  0  0  0
    6.0978    0.3208    0.0000 C   0  0  0  0  0  0  0  0  0  0  0  0
    5.3833   -0.0917    0.0000 C   0  0  0  0  0  0  0  0  0  0  0  0
    5.3833   -0.9167    0.0000 O   0  0  0  0  0  0  0  0  0  0  0  0
    4.6688    0.3208    0.0000 C   0  0  0  0  0  0  0  0  0  0  0  0
    3.9544   -0.0917    0.0000 O   0  0  0  0  0  0  0  0  0  0  0  0
    4.6688    1.1458    0.0000 O   0  0  0  0  0  0  0  0  0  0  0  0
    6.8122   -0.0917    0.0000 C   0  0  0  0  0  0  0  0  0  0  0  0
    7.5267    0.3208    0.0000 O   0  0  0  0  0  0  0  0  0  0  0  0
    6.8122   -0.9167    0.0000 O   0  0  0  0  0  0  0  0  0  0  0  0
  1  2  2  0  0  0  0
  2  3  1  0  0  0  0
  3  4  1  0  0  0  0
  4  5  2  0  0  0  0
  1  5  1  0  0  0  0
  5  6  1  0  0  0  0
  6  7  2  0  0  0  0
  7  8  1  0  0  0  0
  8  9  1  0  0  0  0
  9 10  1  0  0  0  0
 10 11  1  0  0  0  0
 11 12  1  0  0  0  0
  7 12  1  0  0  0  0
 10 13  1  0  0  0  0
  6 14  1  0  0  0  0
 14 15  2  0  0  0  0
 15 16  1  0  0  0  0
 16 17  2  0  0  0  0
 17 18  1  0  0  0  0
 18 19  2  0  0  0  0
 14 19  1  0  0  0  0
 19 20  1  0  0  0  0
 20 21  1  0  0  0  0
  4 21  1  0  0  0  0
 22 23  1  0  0  0  0
 23 24  1  0  0  0  0
 23 25  1  0  0  0  0
 25 26  2  0  0  0  0
 25 27  1  0  0  0  0
 22 28  1  0  0  0  0
 28 29  2  0  0  0  0
 28 30  1  0  0  0  0
M  END
>  <Name>
Pizotifen Malate

>  <CAS>
5189-11-7

>  <Formula>
C19H21NS.C4H6O5

>  <MolWt>
429.53 

>  <Bioactivity>
Pizotifen malate is a highly selective 5-HT receptor blocking agent, which is a benzocycloheptane based drug.

>  <Pathways>
Neuroscience

>  <Target>
5-HT Receptor agonist

>  <Receptor>
5-HT Receptor

>  <Reference>
1. Margarit MV, et al. Drug Dev Ind Pharm. 2001 Jul;27(6):517-22.

$$$$
13647-35-3
  Mrv1561503291623562D          

 24 28  0  0  1  0            999 V2000
    1.2463   -0.2182    0.0000 C   0  0  1  0  0  0  0  0  0  0  0  0
    0.4342   -0.3634    0.0000 C   0  0  1  0  0  0  0  0  0  0  0  0
   -0.0976    0.2673    0.0000 C   0  0  0  0  0  0  0  0  0  0  0  0
    0.1827    1.0432    0.0000 C   0  0  0  0  0  0  0  0  0  0  0  0
    0.9948    1.1884    0.0000 C   0  0  0  0  0  0  0  0  0  0  0  0
    1.5266    0.5577    0.0000 C   0  0  2  0  0  0  0  0  0  0  0  0
    2.3387    0.7029    0.0000 C   0  0  1  0  0  0  0  0  0  0  0  0
    2.6190    1.4789    0.0000 C   0  0  0  0  0  0  0  0  0  0  0  0
    3.4311    1.6241    0.0000 C   0  0  0  0  0  0  0  0  0  0  0  0
    3.9629    0.9934    0.0000 C   0  0  1  0  0  0  0  0  0  0  0  0
    3.6826    0.2174    0.0000 C   0  0  2  0  0  0  0  0  0  0  0  0
    2.8705    0.0722    0.0000 C   0  0  2  0  0  0  0  0  0  0  0  0
    2.5902   -0.7037    0.0000 C   0  0  0  0  0  0  0  0  0  0  0  0
    1.7781   -0.8489    0.0000 C   0  0  0  0  0  0  0  0  0  0  0  0
    4.3340   -0.2889    0.0000 C   0  0  0  0  0  0  0  0  0  0  0  0
    5.0168    0.1741    0.0000 C   0  0  0  0  0  0  0  0  0  0  0  0
    4.7875    0.9666    0.0000 C   0  0  2  0  0  0  0  0  0  0  0  0
    5.2939    1.6179    0.0000 O   0  0  0  0  0  0  0  0  0  0  0  0
    4.3228    1.7357    0.0000 C   0  0  0  0  0  0  0  0  0  0  0  0
    1.8069    1.3336    0.0000 C   0  0  0  0  0  0  0  0  0  0  0  0
   -0.3492    1.6739    0.0000 C   0  0  0  0  0  0  0  0  0  0  0  0
   -0.8810    2.3046    0.0000 N   0  0  0  0  0  0  0  0  0  0  0  0
   -0.9098    0.1221    0.0000 O   0  0  0  0  0  0  0  0  0  0  0  0
    0.9660   -0.9941    0.0000 O   0  0  0  0  0  0  0  0  0  0  0  0
  1  2  1  0  0  0  0
  2  3  1  0  0  0  0
  3  4  2  0  0  0  0
  4  5  1  0  0  0  0
  5  6  1  0  0  0  0
  1  6  1  0  0  0  0
  6  7  1  0  0  0  0
  7  8  1  1  0  0  0
  8  9  1  0  0  0  0
  9 10  1  0  0  0  0
 10 11  1  0  0  0  0
 11 12  1  0  0  0  0
  7 12  1  0  0  0  0
 12 13  1  6  0  0  0
 13 14  1  0  0  0  0
  1 14  1  0  0  0  0
 11 15  1  1  0  0  0
 15 16  1  0  0  0  0
 16 17  1  0  0  0  0
 10 17  1  0  0  0  0
 17 18  1  1  0  0  0
 10 19  1  1  0  0  0
  6 20  1  1  0  0  0
  4 21  1  0  0  0  0
 21 22  3  0  0  0  0
  3 23  1  0  0  0  0
  2 24  1  6  0  0  0
  1 24  1  6  0  0  0
M  END
>  <Name>
Trilostane

>  <CAS>
13647-35-3

>  <Formula>
C20H27NO3

>  <MolWt>
329.43 

>  <Bioactivity>
Trilostane is an inhibitor of 3 beta-hydroxysteroid dehydrogenase used in the treatment of Cushing's syndrome. It was withdrawn from the United States market in April 1994. 

>  <Pathways>
Endocrinology/ Hormones

>  <Target>
Estrogen receptor allosteric modulator

>  <Receptor>
HSD3B;Estrogen receptor

>  <Reference>
1. Puddefoot JR, et al. Expert Opin Pharmacother. 2006 Dec;7(17):2413-9. 

$$$$

  Mrv1561503291623562D          

  0  0  0  0  0  0            999 V2000
M  END
>  <Name>
Sucralfate

>  <CAS>
54182-58-0

>  <Formula>
C12H54Al16O75S8

>  <MolWt>
2072.71 

>  <Bioactivity>
Sucralfate is a cytoprotective agent, an oral gastrointestinal medication primarily indicated for the treatment of active duodenal ulcers.

>  <Pathways>
Others

>  <Target>
Others

>  <Receptor>
Pepsin, FGF2, PGF, Fibrinogen chain

>  <Reference>
1. Terao N, et al. Arzneimittelforschung. 1980;30(1):76-8. 

$$$$
4880-88-0
  Mrv1561503291623562D          

 22 26  0  0  1  0            999 V2000
    1.2003    1.1190    0.0000 C   0  0  2  0  0  0  0  0  0  0  0  0
    0.3767    1.0719    0.0000 C   0  0  0  0  0  0  0  0  0  0  0  0
   -0.0760    1.7616    0.0000 C   0  0  0  0  0  0  0  0  0  0  0  0
   -0.8718    1.5443    0.0000 C   0  0  0  0  0  0  0  0  0  0  0  0
   -1.5659    1.9902    0.0000 C   0  0  0  0  0  0  0  0  0  0  0  0
   -2.2992    1.6122    0.0000 C   0  0  0  0  0  0  0  0  0  0  0  0
   -2.3384    0.7881    0.0000 C   0  0  0  0  0  0  0  0  0  0  0  0
   -1.6443    0.3421    0.0000 C   0  0  0  0  0  0  0  0  0  0  0  0
   -0.9110    0.7202    0.0000 C   0  0  0  0  0  0  0  0  0  0  0  0
    0.0057    0.3350    0.0000 N   0  0  0  0  0  0  0  0  0  0  0  0
    0.4583   -0.3547    0.0000 C   0  0  0  0  0  0  0  0  0  0  0  0
    0.0873   -1.0916    0.0000 O   0  0  0  0  0  0  0  0  0  0  0  0
    1.2820   -0.3076    0.0000 C   0  0  0  0  0  0  0  0  0  0  0  0
    1.6530    0.4293    0.0000 C   0  0  2  0  0  0  0  0  0  0  0  0
    2.4766    0.4764    0.0000 C   0  0  0  0  0  0  0  0  0  0  0  0
    2.8476    1.2133    0.0000 C   0  0  0  0  0  0  0  0  0  0  0  0
    2.3950    1.9031    0.0000 C   0  0  0  0  0  0  0  0  0  0  0  0
    1.5713    1.8559    0.0000 N   0  0  0  0  0  0  0  0  0  0  0  0
    1.1187    2.5456    0.0000 C   0  0  0  0  0  0  0  0  0  0  0  0
    0.2950    2.4985    0.0000 C   0  0  0  0  0  0  0  0  0  0  0  0
    2.1056   -0.2604    0.0000 C   0  0  0  0  0  0  0  0  0  0  0  0
    2.9293   -0.2133    0.0000 C   0  0  0  0  0  0  0  0  0  0  0  0
  1  2  1  1  0  0  0
  2  3  2  0  0  0  0
  3  4  1  0  0  0  0
  4  5  2  0  0  0  0
  5  6  1  0  0  0  0
  6  7  2  0  0  0  0
  7  8  1  0  0  0  0
  8  9  2  0  0  0  0
  4  9  1  0  0  0  0
  9 10  1  0  0  0  0
  2 10  1  0  0  0  0
 10 11  1  0  0  0  0
 11 12  2  0  0  0  0
 11 13  1  0  0  0  0
 13 14  1  0  0  0  0
  1 14  1  0  0  0  0
 14 15  1  0  0  0  0
 15 16  1  0  0  0  0
 16 17  1  0  0  0  0
 17 18  1  0  0  0  0
  1 18  1  0  0  0  0
 18 19  1  0  0  0  0
 19 20  1  0  0  0  0
  3 20  1  0  0  0  0
 14 21  1  6  0  0  0
 21 22  1  0  0  0  0
M  END
>  <Name>
Eburnalritardo

>  <CAS>
4880-88-0

>  <Formula>
C19H22N2O

>  <MolWt>
294.39 

>  <Bioactivity>
Vinburnine (or eburnamonine, Vincamone) is a vasodilator. Vincamone is a vinca alkaloid and a metabolite of vincamine.

>  <Pathways>
Others

>  <Target>
Others

>  <Receptor>
Others

>  <Reference>
1. Riofski MV, et al. J Org Chem. 2011 May 20; 76(10):3676-83. 

$$$$
T1123
  Mrv1561503291623562D          

 26 30  0  0  1  0            999 V2000
    5.6165   -0.3721    0.0000 C   0  0  2  0  0  0  0  0  0  0  0  0
    5.0645    0.2410    0.0000 C   0  0  0  0  0  0  0  0  0  0  0  0
    5.3194    1.0256    0.0000 C   0  0  0  0  0  0  0  0  0  0  0  0
    4.7674    1.6387    0.0000 C   0  0  0  0  0  0  0  0  0  0  0  0
    3.9604    1.4672    0.0000 N   0  0  0  0  0  0  0  0  0  0  0  0
    3.2929    1.9521    0.0000 C   0  0  0  0  0  0  0  0  0  0  0  0
    2.6255    1.4672    0.0000 C   0  0  0  0  0  0  0  0  0  0  0  0
    2.8804    0.6825    0.0000 C   0  0  0  0  0  0  0  0  0  0  0  0
    3.7054    0.6825    0.0000 C   0  0  0  0  0  0  0  0  0  0  0  0
    4.2575    0.0694    0.0000 C   0  0  0  0  0  0  0  0  0  0  0  0
    2.3284    0.0694    0.0000 N   0  0  0  0  0  0  0  0  0  0  0  0
    1.5214    0.2410    0.0000 C   0  0  0  0  0  0  0  0  0  0  0  0
    0.9694   -0.3721    0.0000 C   0  0  0  0  0  0  0  0  0  0  0  0
    0.1624   -0.2006    0.0000 C   0  0  0  0  0  0  0  0  0  0  0  0
   -0.0925    0.5840    0.0000 C   0  0  0  0  0  0  0  0  0  0  0  0
    0.4595    1.1971    0.0000 C   0  0  0  0  0  0  0  0  0  0  0  0
    1.2665    1.0256    0.0000 C   0  0  0  0  0  0  0  0  0  0  0  0
    1.8185    1.6387    0.0000 C   0  0  0  0  0  0  0  0  0  0  0  0
    5.0223    2.4233    0.0000 O   0  0  0  0  0  0  0  0  0  0  0  0
    6.1264    1.1971    0.0000 C   0  0  0  0  0  0  0  0  0  0  0  0
    6.6784    0.5840    0.0000 O   0  0  0  0  0  0  0  0  0  0  0  0
    6.4235   -0.2006    0.0000 C   0  0  0  0  0  0  0  0  0  0  0  0
    6.9755   -0.8137    0.0000 O   0  0  0  0  0  0  0  0  0  0  0  0
    5.0230   -0.9452    0.0000 C   0  0  0  0  0  0  0  0  0  0  0  0
    5.2226   -1.7457    0.0000 C   0  0  0  0  0  0  0  0  0  0  0  0
    5.7597   -1.1846    0.0000 O   0  0  0  0  0  0  0  0  0  0  0  0
  1  2  1  0  0  0  0
  2  3  2  0  0  0  0
  3  4  1  0  0  0  0
  4  5  1  0  0  0  0
  5  6  1  0  0  0  0
  6  7  1  0  0  0  0
  7  8  2  0  0  0  0
  8  9  1  0  0  0  0
  5  9  1  0  0  0  0
  9 10  2  0  0  0  0
  2 10  1  0  0  0  0
  8 11  1  0  0  0  0
 11 12  2  0  0  0  0
 12 13  1  0  0  0  0
 13 14  2  0  0  0  0
 14 15  1  0  0  0  0
 15 16  2  0  0  0  0
 16 17  1  0  0  0  0
 12 17  1  0  0  0  0
 17 18  2  0  0  0  0
  7 18  1  0  0  0  0
  4 19  2  0  0  0  0
  3 20  1  0  0  0  0
 20 21  1  0  0  0  0
 21 22  1  0  0  0  0
  1 22  1  0  0  0  0
 22 23  2  0  0  0  0
  1 24  1  6  0  0  0
 24 25  1  0  0  0  0
  1 26  1  1  0  0  0
M  END
>  <Name>
(+)-Camptothecin

>  <CAS>
7689-03-4

>  <Formula>
C20H16N2O4

>  <MolWt>
348.36 

>  <Bioactivity>
An alkaloid isolated from the stem wood of the Chinese tree, Camptotheca acuminata. This compound selectively inhibits the nuclear enzyme DNA TOPOISOMERASES, TYPE I. Several semisynthetic analogs of camptothecin have demonstrated antitumor activity. 

>  <Pathways>
DNA Damage/DNA Repair

>  <Target>
Topoisomerase inhibitor

>  <Receptor>
Topoisomerase I

>  <Reference>
1. Teicher BA. Biochem Pharmacol. 2007 Oct 22;.

$$$$
51-48-9
  Mrv1561503291623562D          

 24 25  0  0  0  0            999 V2000
   -0.0000   -1.6500    0.0000 C   0  0  0  0  0  0  0  0  0  0  0  0
   -0.0000   -2.4750    0.0000 C   0  0  0  0  0  0  0  0  0  0  0  0
   -0.7145   -2.8875    0.0000 C   0  0  0  0  0  0  0  0  0  0  0  0
   -1.4289   -2.4750    0.0000 C   0  0  0  0  0  0  0  0  0  0  0  0
   -1.4289   -1.6500    0.0000 C   0  0  0  0  0  0  0  0  0  0  0  0
   -0.7145   -1.2375    0.0000 C   0  0  0  0  0  0  0  0  0  0  0  0
   -0.7145   -0.4125    0.0000 O   0  0  0  0  0  0  0  0  0  0  0  0
   -1.4289    0.0000    0.0000 C   0  0  0  0  0  0  0  0  0  0  0  0
   -2.1434   -0.4125    0.0000 C   0  0  0  0  0  0  0  0  0  0  0  0
   -2.8579    0.0000    0.0000 C   0  0  0  0  0  0  0  0  0  0  0  0
   -2.8579    0.8250    0.0000 C   0  0  0  0  0  0  0  0  0  0  0  0
   -2.1434    1.2375    0.0000 C   0  0  0  0  0  0  0  0  0  0  0  0
   -1.4289    0.8250    0.0000 C   0  0  0  0  0  0  0  0  0  0  0  0
   -0.7145    1.2375    0.0000 I   0  0  0  0  0  0  0  0  0  0  0  0
   -3.5724    1.2375    0.0000 C   0  0  0  0  0  0  0  0  0  0  0  0
   -3.5724    2.0625    0.0000 C   0  0  0  0  0  0  0  0  0  0  0  0
   -4.2868    2.4750    0.0000 C   0  0  0  0  0  0  0  0  0  0  0  0
   -4.2868    3.3000    0.0000 O   0  0  0  0  0  0  0  0  0  0  0  0
   -5.0013    2.0625    0.0000 O   0  0  0  0  0  0  0  0  0  0  0  0
   -2.8579    2.4750    0.0000 N   0  0  0  0  0  0  0  0  0  0  0  0
   -2.1434   -1.2375    0.0000 I   0  0  0  0  0  0  0  0  0  0  0  0
   -2.1434   -2.8875    0.0000 I   0  0  0  0  0  0  0  0  0  0  0  0
   -0.7145   -3.7125    0.0000 O   0  0  0  0  0  0  0  0  0  0  0  0
    0.7145   -2.8875    0.0000 I   0  0  0  0  0  0  0  0  0  0  0  0
  1  2  2  0  0  0  0
  2  3  1  0  0  0  0
  3  4  2  0  0  0  0
  4  5  1  0  0  0  0
  5  6  2  0  0  0  0
  1  6  1  0  0  0  0
  6  7  1  0  0  0  0
  7  8  1  0  0  0  0
  8  9  2  0  0  0  0
  9 10  1  0  0  0  0
 10 11  2  0  0  0  0
 11 12  1  0  0  0  0
 12 13  2  0  0  0  0
  8 13  1  0  0  0  0
 13 14  1  0  0  0  0
 11 15  1  0  0  0  0
 15 16  1  0  0  0  0
 16 17  1  0  0  0  0
 17 18  2  0  0  0  0
 17 19  1  0  0  0  0
 16 20  1  0  0  0  0
  9 21  1  0  0  0  0
  4 22  1  0  0  0  0
  3 23  1  0  0  0  0
  2 24  1  0  0  0  0
M  END
>  <Name>
L-Thyroxine

>  <CAS>
51-48-9

>  <Formula>
C15H11I4NO4

>  <MolWt>
776.87 

>  <Bioactivity>
The major hormone derived from the thyroid gland. Thyroxine is synthesized via the iodination of tyrosines (MONOIODOTYROSINE) and the coupling of iodotyrosines (DIIODOTYROSINE) in the THYROGLOBULIN. Thyroxine is released from thyroglobulin by proteolysis and secreted into the blood. Thyroxine is peripherally deiodinated to form TRIIODOTHYRONINE which exerts a broad spectrum of stimulatory effects on cell metabolism.  

>  <Pathways>
Endocrinology/ Hormones

>  <Target>
Thyroid hormone receptor agonist

>  <Receptor>
Thyroid hormone receptor

>  <Reference>
1. Marazuela M, et al. Thyroid. 2008 Oct; 18(10):1119-23. 

$$$$
T3060
  Mrv1561503291623562D          

 22 22  0  0  0  0            999 V2000
    0.4125    0.0000    0.0000 H   0  3  0  0  0  0  0  0  0  0  0  0
    2.9821    1.0340    0.0000 C   0  0  0  0  0  0  0  0  0  0  0  0
    3.6965    0.6215    0.0000 C   0  0  0  0  0  0  0  0  0  0  0  0
    3.6965   -0.2035    0.0000 S   0  0  0  0  0  0  0  0  0  0  0  0
    4.5215   -0.2035    0.0000 O   0  0  0  0  0  0  0  0  0  0  0  0
    2.8715   -0.2035    0.0000 O   0  0  0  0  0  0  0  0  0  0  0  0
    3.6965   -1.0285    0.0000 N   0  0  0  0  0  0  0  0  0  0  0  0
    4.4398   -1.3865    0.0000 C   0  0  0  0  0  0  0  0  0  0  0  0
    4.6234   -2.1908    0.0000 C   0  0  0  0  0  0  0  0  0  0  0  0
    4.1090   -2.8358    0.0000 N   0  0  0  0  0  0  0  0  0  0  0  0
    3.2840   -2.8358    0.0000 C   0  0  0  0  0  0  0  0  0  0  0  0
    2.7696   -2.1908    0.0000 C   0  0  0  0  0  0  0  0  0  0  0  0
    2.9532   -1.3865    0.0000 C   0  0  0  0  0  0  0  0  0  0  0  0
    4.4110    1.0340    0.0000 C   0  0  0  0  0  0  0  0  0  0  0  0
    4.4110    1.8590    0.0000 C   0  0  0  0  0  0  0  0  0  0  0  0
    3.6965    2.2715    0.0000 C   0  0  0  0  0  0  0  0  0  0  0  0
    2.9821    1.8590    0.0000 C   0  0  0  0  0  0  0  0  0  0  0  0
    5.1255    2.2715    0.0000 C   0  0  0  0  0  0  0  0  0  0  0  0
    5.8399    1.8590    0.0000 N   0  0  0  0  0  0  0  0  0  0  0  0
    5.8399    1.0340    0.0000 C   0  0  0  0  0  0  0  0  0  0  0  0
    5.1255    0.6215    0.0000 C   0  0  0  0  0  0  0  0  0  0  0  0
   -0.4125    0.0000    0.0000 Cl  0  5  0  0  0  0  0  0  0  0  0  0
  2  3  2  0  0  0  0
  3  4  1  0  0  0  0
  4  5  2  0  0  0  0
  4  6  2  0  0  0  0
  4  7  1  0  0  0  0
  7  8  1  0  0  0  0
  8  9  1  0  0  0  0
  9 10  1  0  0  0  0
 10 11  1  0  0  0  0
 11 12  1  0  0  0  0
 12 13  1  0  0  0  0
  7 13  1  0  0  0  0
  3 14  1  0  0  0  0
 14 15  2  0  0  0  0
 15 16  1  0  0  0  0
 16 17  2  0  0  0  0
  2 17  1  0  0  0  0
 15 18  1  0  0  0  0
 18 19  2  0  0  0  0
 19 20  1  0  0  0  0
 20 21  2  0  0  0  0
 14 21  1  0  0  0  0
M  CHG  2   1   1  22  -1
M  END
>  <Name>
Fasudil (HA-1077) HCl

>  <CAS>
105628-07-7

>  <Formula>
C14H18ClN3O2S

>  <MolWt>
327.83 

>  <Bioactivity>
Fasudil Hcl(HA-1077; AT-877) is a potent inhibitor of ROCK-II, PKA, PKG, PKC, and MLCK with Ki of 0.33 ?M, 1.6 ?M, 1.6 ?M, 3.3 ?M and 36 ?M, respectively.

>  <Pathways>
Cell Cycle/Checkpoint

>  <Target>
ROCK inhibitor

>  <Receptor>
ROCK-II; PKA; PKG; PKC; MLCK

>  <Reference>
1. Ono-Saito N, et al. Pharmacol Ther, 1999, 82(2-3), 123-131.

$$$$
T1063
  Mrv1561503291623562D          

 27 27  0  0  1  0            999 V2000
    0.6531   -2.7641    0.0000 C   0  0  0  0  0  0  0  0  0  0  0  0
    0.6963   -3.5880    0.0000 S   0  0  0  0  0  0  0  0  0  0  0  0
   -0.0739   -3.8836    0.0000 C   0  0  0  0  0  0  0  0  0  0  0  0
   -0.5931   -3.2425    0.0000 C   0  0  0  0  0  0  0  0  0  0  0  0
   -0.1438   -2.5506    0.0000 N   0  0  0  0  0  0  0  0  0  0  0  0
    0.0698   -1.7537    0.0000 C   0  0  0  0  0  0  0  0  0  0  0  0
   -0.3427   -1.0392    0.0000 O   0  0  0  0  0  0  0  0  0  0  0  0
    0.8666   -1.9672    0.0000 C   0  0  0  0  0  0  0  0  0  0  0  0
    1.5811   -1.5547    0.0000 N   0  0  0  0  0  0  0  0  0  0  0  0
    1.5811   -0.7297    0.0000 C   0  0  0  0  0  0  0  0  0  0  0  0
    0.8666   -0.3172    0.0000 O   0  0  0  0  0  0  0  0  0  0  0  0
    2.2956   -0.3172    0.0000 C   0  0  0  0  0  0  0  0  0  0  0  0
    2.2956    0.5078    0.0000 C   0  0  0  0  0  0  0  0  0  0  0  0
    1.6282    0.9927    0.0000 C   0  0  0  0  0  0  0  0  0  0  0  0
    1.8831    1.7773    0.0000 S   0  0  0  0  0  0  0  0  0  0  0  0
    2.7081    1.7773    0.0000 C   0  0  0  0  0  0  0  0  0  0  0  0
    2.9630    0.9927    0.0000 C   0  0  0  0  0  0  0  0  0  0  0  0
    3.0101   -0.7297    0.0000 C   0  0  0  0  0  0  0  0  0  0  0  0
    3.0101   -1.5547    0.0000 O   0  5  0  0  0  0  0  0  0  0  0  0
    3.7245   -0.3172    0.0000 O   0  0  0  0  0  0  0  0  0  0  0  0
   -1.4170   -3.2856    0.0000 C   0  0  0  0  0  0  0  0  0  0  0  0
   -1.7915   -4.0207    0.0000 O   0  5  0  0  0  0  0  0  0  0  0  0
   -1.8663   -2.5937    0.0000 O   0  0  0  0  0  0  0  0  0  0  0  0
    0.1313   -4.6827    0.0000 C   0  0  0  0  0  0  0  0  0  0  0  0
   -0.6511   -4.4731    0.0000 C   0  0  0  0  0  0  0  0  0  0  0  0
    3.0101   -2.3797    0.0000 Na  0  3  0  0  0  0  0  0  0  0  0  0
   -2.1660   -4.7558    0.0000 Na  0  3  0  0  0  0  0  0  0  0  0  0
  1  2  1  0  0  0  0
  2  3  1  0  0  0  0
  3  4  1  0  0  0  0
  4  5  1  0  0  0  0
  1  5  1  0  0  0  0
  5  6  1  0  0  0  0
  6  7  2  0  0  0  0
  6  8  1  0  0  0  0
  1  8  1  0  0  0  0
  8  9  1  0  0  0  0
  9 10  1  0  0  0  0
 10 11  2  0  0  0  0
 10 12  1  0  0  0  0
 12 13  1  0  0  0  0
 13 14  2  0  0  0  0
 14 15  1  0  0  0  0
 15 16  1  0  0  0  0
 16 17  2  0  0  0  0
 13 17  1  0  0  0  0
 12 18  1  0  0  0  0
 18 19  1  0  0  0  0
 18 20  2  0  0  0  0
  4 21  1  0  0  0  0
 21 22  1  0  0  0  0
 21 23  2  0  0  0  0
  3 24  1  0  0  0  0
  3 25  1  0  0  0  0
M  CHG  4  19  -1  22  -1  26   1  27   1
M  END
>  <Name>
Ticarcillin disodium

>  <CAS>
4697-14-7

>  <Formula>
C15H14N2Na2O6S2

>  <MolWt>
428.39 

>  <Bioactivity>
An antibiotic derived from penicillin similar to CARBENICILLIN in action.


>  <Pathways>
Microbiology & Virology

>  <Target>
Antibacterial

>  <Receptor>
Others

>  <Reference>
1. Webb D, et al. Arch Intern Med. 1978 Nov;138(11):1618-20.

$$$$
274693-27-5
  Mrv1561503291623562D          

 36 40  0  0  0  0            999 V2000
    4.9279    1.1104    0.0000 C   0  0  0  0  0  0  0  0  0  0  0  0
    4.2135    0.6979    0.0000 C   0  0  0  0  0  0  0  0  0  0  0  0
    3.4990    1.1104    0.0000 C   0  0  0  0  0  0  0  0  0  0  0  0
    2.7845    0.6979    0.0000 S   0  0  0  0  0  0  0  0  0  0  0  0
    2.0701    1.1104    0.0000 C   0  0  0  0  0  0  0  0  0  0  0  0
    1.3556    0.6979    0.0000 N   0  0  0  0  0  0  0  0  0  0  0  0
    0.6411    1.1104    0.0000 C   0  0  0  0  0  0  0  0  0  0  0  0
    0.6411    1.9354    0.0000 C   0  0  0  0  0  0  0  0  0  0  0  0
    1.3556    2.3479    0.0000 C   0  0  0  0  0  0  0  0  0  0  0  0
    2.0701    1.9354    0.0000 N   0  0  0  0  0  0  0  0  0  0  0  0
    1.3556    3.1729    0.0000 N   0  0  0  0  0  0  0  0  0  0  0  0
    2.0701    3.5854    0.0000 C   0  0  0  0  0  0  0  0  0  0  0  0
    2.4826    4.2999    0.0000 C   0  0  0  0  0  0  0  0  0  0  0  0
    2.8951    3.5854    0.0000 C   0  0  0  0  0  0  0  0  0  0  0  0
    3.6095    3.1729    0.0000 C   0  0  0  0  0  0  0  0  0  0  0  0
    4.3240    3.5854    0.0000 C   0  0  0  0  0  0  0  0  0  0  0  0
    5.0385    3.1729    0.0000 C   0  0  0  0  0  0  0  0  0  0  0  0
    5.0385    2.3479    0.0000 C   0  0  0  0  0  0  0  0  0  0  0  0
    4.3240    1.9354    0.0000 C   0  0  0  0  0  0  0  0  0  0  0  0
    3.6095    2.3479    0.0000 C   0  0  0  0  0  0  0  0  0  0  0  0
    5.7529    1.9354    0.0000 F   0  0  0  0  0  0  0  0  0  0  0  0
    5.7529    3.5854    0.0000 F   0  0  0  0  0  0  0  0  0  0  0  0
   -0.1435    2.1904    0.0000 N   0  0  0  0  0  0  0  0  0  0  0  0
   -0.6284    1.5229    0.0000 N   0  0  0  0  0  0  0  0  0  0  0  0
   -0.1435    0.8555    0.0000 N   0  0  0  0  0  0  0  0  0  0  0  0
   -0.3984    0.0709    0.0000 C   0  0  0  0  0  0  0  0  0  0  0  0
    0.0865   -0.5966    0.0000 C   0  0  0  0  0  0  0  0  0  0  0  0
   -0.3984   -1.2640    0.0000 C   0  0  0  0  0  0  0  0  0  0  0  0
   -1.1831   -1.0091    0.0000 C   0  0  0  0  0  0  0  0  0  0  0  0
   -1.1831   -0.1841    0.0000 C   0  0  0  0  0  0  0  0  0  0  0  0
   -1.8505    0.3009    0.0000 O   0  0  0  0  0  0  0  0  0  0  0  0
   -1.8505   -1.4940    0.0000 O   0  0  0  0  0  0  0  0  0  0  0  0
   -0.1435   -2.0486    0.0000 O   0  0  0  0  0  0  0  0  0  0  0  0
    0.6635   -2.2201    0.0000 C   0  0  0  0  0  0  0  0  0  0  0  0
    0.9184   -3.0048    0.0000 C   0  0  0  0  0  0  0  0  0  0  0  0
    1.7254   -3.1763    0.0000 O   0  0  0  0  0  0  0  0  0  0  0  0
  1  2  1  0  0  0  0
  2  3  1  0  0  0  0
  3  4  1  0  0  0  0
  4  5  1  0  0  0  0
  5  6  2  0  0  0  0
  6  7  1  0  0  0  0
  7  8  2  0  0  0  0
  8  9  1  0  0  0  0
  9 10  2  0  0  0  0
  5 10  1  0  0  0  0
  9 11  1  0  0  0  0
 11 12  1  0  0  0  0
 12 13  1  0  0  0  0
 13 14  1  0  0  0  0
 12 14  1  0  0  0  0
 14 15  1  0  0  0  0
 15 16  2  0  0  0  0
 16 17  1  0  0  0  0
 17 18  2  0  0  0  0
 18 19  1  0  0  0  0
 19 20  2  0  0  0  0
 15 20  1  0  0  0  0
 18 21  1  0  0  0  0
 17 22  1  0  0  0  0
  8 23  1  0  0  0  0
 23 24  2  0  0  0  0
 24 25  1  0  0  0  0
  7 25  1  0  0  0  0
 25 26  1  0  0  0  0
 26 27  1  0  0  0  0
 27 28  1  0  0  0  0
 28 29  1  0  0  0  0
 29 30  1  0  0  0  0
 26 30  1  0  0  0  0
 30 31  1  0  0  0  0
 29 32  1  0  0  0  0
 28 33  1  0  0  0  0
 33 34  1  0  0  0  0
 34 35  1  0  0  0  0
 35 36  1  0  0  0  0
M  END
>  <Name>
Ticagrelor

>  <CAS>
274693-27-5

>  <Formula>
C23H28F2N6O4S

>  <MolWt>
522.57 

>  <Bioactivity>
Ticagrelor (trade name Brilinta in the US, Brilique and Possia in the EU) is a platelet aggregation inhibitor produced by AstraZeneca. Unlike clopidogrel, ticagrelor is not a prodrug and does not require metabolic activation. The drug was approved for use in the European Union by the European Commission on December 3, 2010. The drug was approved by the US Food and Drug Administration on July 20, 2011.

>  <Pathways>
Neuroscience

>  <Target>
P2 Receptor inhibitor

>  <Receptor>
P2Y Receptor

>  <Reference>
1. Gebremeskel S, et al. Int J Cancer. 2015 Jan 1; 136(1):234-40.

$$$$
152520-56-4
  Mrv1561503291623562D          

 31 32  0  0  1  0            999 V2000
   -2.2912   -0.4978    0.0000 C   0  0  0  0  0  0  0  0  0  0  0  0
   -2.2912    0.3272    0.0000 O   0  0  0  0  0  0  0  0  0  0  0  0
   -3.0057    0.7397    0.0000 C   0  0  0  0  0  0  0  0  0  0  0  0
   -3.7202    0.3272    0.0000 C   0  0  0  0  0  0  0  0  0  0  0  0
   -3.7202   -0.4978    0.0000 C   0  0  0  0  0  0  0  0  0  0  0  0
   -3.0057   -0.9103    0.0000 C   0  0  0  0  0  0  0  0  0  0  0  0
   -4.4346    0.7397    0.0000 C   0  0  0  0  0  0  0  0  0  0  0  0
   -4.4346    1.5647    0.0000 C   0  0  0  0  0  0  0  0  0  0  0  0
   -5.1491    1.9772    0.0000 F   0  0  0  0  0  0  0  0  0  0  0  0
   -3.7202    1.9772    0.0000 C   0  0  0  0  0  0  0  0  0  0  0  0
   -3.0057    1.5647    0.0000 C   0  0  0  0  0  0  0  0  0  0  0  0
   -1.5768   -0.9103    0.0000 C   0  0  0  0  0  0  0  0  0  0  0  0
   -1.5768   -1.7353    0.0000 O   0  0  0  0  0  0  0  0  0  0  0  0
   -0.8623   -0.4978    0.0000 C   0  0  0  0  0  0  0  0  0  0  0  0
   -0.1478   -0.9103    0.0000 N   0  0  0  0  0  0  0  0  0  0  0  0
    0.5666   -0.4978    0.0000 C   0  0  0  0  0  0  0  0  0  0  0  0
    1.2811   -0.9103    0.0000 C   0  0  0  0  0  0  0  0  0  0  0  0
    1.2811   -1.7353    0.0000 O   0  0  0  0  0  0  0  0  0  0  0  0
    1.9956   -0.4978    0.0000 C   0  0  0  0  0  0  0  0  0  0  0  0
    2.7101   -0.9103    0.0000 O   0  0  0  0  0  0  0  0  0  0  0  0
    3.4245   -0.4978    0.0000 C   0  0  0  0  0  0  0  0  0  0  0  0
    3.4245    0.3272    0.0000 C   0  0  0  0  0  0  0  0  0  0  0  0
    2.7101    0.7397    0.0000 C   0  0  0  0  0  0  0  0  0  0  0  0
    1.9956    0.3272    0.0000 C   0  0  0  0  0  0  0  0  0  0  0  0
    4.1390    0.7397    0.0000 C   0  0  0  0  0  0  0  0  0  0  0  0
    4.8535    0.3272    0.0000 C   0  0  0  0  0  0  0  0  0  0  0  0
    5.5679    0.7397    0.0000 F   0  0  0  0  0  0  0  0  0  0  0  0
    4.8535   -0.4978    0.0000 C   0  0  0  0  0  0  0  0  0  0  0  0
    4.1390   -0.9103    0.0000 C   0  0  0  0  0  0  0  0  0  0  0  0
    8.7501    0.0000    0.0000 H   0  3  0  0  0  0  0  0  0  0  0  0
    7.9251    0.0000    0.0000 Cl  0  5  0  0  0  0  0  0  0  0  0  0
  1  2  1  0  0  0  0
  2  3  1  0  0  0  0
  3  4  2  0  0  0  0
  4  5  1  0  0  0  0
  5  6  1  0  0  0  0
  1  6  1  0  0  0  0
  4  7  1  0  0  0  0
  7  8  2  0  0  0  0
  8  9  1  0  0  0  0
  8 10  1  0  0  0  0
 10 11  2  0  0  0  0
  3 11  1  0  0  0  0
  1 12  1  0  0  0  0
 12 13  1  0  0  0  0
 12 14  1  0  0  0  0
 14 15  1  0  0  0  0
 15 16  1  0  0  0  0
 16 17  1  0  0  0  0
 17 18  1  0  0  0  0
 17 19  1  0  0  0  0
 19 20  1  0  0  0  0
 20 21  1  0  0  0  0
 21 22  2  0  0  0  0
 22 23  1  0  0  0  0
 23 24  1  0  0  0  0
 19 24  1  0  0  0  0
 22 25  1  0  0  0  0
 25 26  2  0  0  0  0
 26 27  1  0  0  0  0
 26 28  1  0  0  0  0
 28 29  2  0  0  0  0
 21 29  1  0  0  0  0
M  CHG  2  30   1  31  -1
M  END
>  <Name>
Nebivolol HCl

>  <CAS>
152520-56-4

>  <Formula>
C22H25F2NO4.HCl

>  <MolWt>
441.90 

>  <Bioactivity>
Nebivolol is a highly cardioselective vasodilatory beta1 receptor blocker used in treatment of hypertension. In most countries, this medication is available only by prescription. 

>  <Pathways>
GPCR/G Protein

>  <Target>
Adrenergic Receptor antagonist

>  <Receptor>
?-adrenergic receptor

>  <Reference>
1. Pauwels PJ, et al. Mol Pharmacol, 1988, 34(6), 843-851.

$$$$
134-63-4
  Mrv1561503291623562D          

 27 27  0  0  1  0            999 V2000
   -0.6287    0.4620    0.0000 C   0  0  0  0  0  0  0  0  0  0  0  0
    0.0857    0.0495    0.0000 N   0  0  0  0  0  0  0  0  0  0  0  0
    0.0857   -0.7755    0.0000 C   0  0  0  0  0  0  0  0  0  0  0  0
   -0.6287   -1.1880    0.0000 C   0  0  0  0  0  0  0  0  0  0  0  0
   -1.3432   -0.7755    0.0000 C   0  0  0  0  0  0  0  0  0  0  0  0
   -1.3432    0.0495    0.0000 C   0  0  0  0  0  0  0  0  0  0  0  0
    0.8002   -1.1880    0.0000 C   0  0  0  0  0  0  0  0  0  0  0  0
    0.8002   -2.0130    0.0000 C   0  0  0  0  0  0  0  0  0  0  0  0
    0.0857   -2.4255    0.0000 O   0  0  0  0  0  0  0  0  0  0  0  0
    1.5147   -2.4255    0.0000 C   0  0  0  0  0  0  0  0  0  0  0  0
    2.2291   -2.0130    0.0000 C   0  0  0  0  0  0  0  0  0  0  0  0
    2.9436   -2.4255    0.0000 C   0  0  0  0  0  0  0  0  0  0  0  0
    2.9436   -3.2505    0.0000 C   0  0  0  0  0  0  0  0  0  0  0  0
    2.2291   -3.6630    0.0000 C   0  0  0  0  0  0  0  0  0  0  0  0
    1.5147   -3.2505    0.0000 C   0  0  0  0  0  0  0  0  0  0  0  0
    0.8002    0.4620    0.0000 C   0  0  0  0  0  0  0  0  0  0  0  0
   -0.6287    1.2870    0.0000 C   0  0  0  0  0  0  0  0  0  0  0  0
   -1.3432    1.6995    0.0000 C   0  0  0  0  0  0  0  0  0  0  0  0
   -2.0577    1.2870    0.0000 O   0  0  0  0  0  0  0  0  0  0  0  0
   -1.3432    2.5245    0.0000 C   0  0  0  0  0  0  0  0  0  0  0  0
   -2.0577    2.9370    0.0000 C   0  0  0  0  0  0  0  0  0  0  0  0
   -2.0577    3.7620    0.0000 C   0  0  0  0  0  0  0  0  0  0  0  0
   -1.3432    4.1745    0.0000 C   0  0  0  0  0  0  0  0  0  0  0  0
   -0.6287    3.7620    0.0000 C   0  0  0  0  0  0  0  0  0  0  0  0
   -0.6287    2.9370    0.0000 C   0  0  0  0  0  0  0  0  0  0  0  0
    6.1258    0.0000    0.0000 H   0  3  0  0  0  0  0  0  0  0  0  0
    5.3008    0.0000    0.0000 Cl  0  5  0  0  0  0  0  0  0  0  0  0
  1  2  1  0  0  0  0
  2  3  1  0  0  0  0
  3  4  1  0  0  0  0
  4  5  1  0  0  0  0
  5  6  1  0  0  0  0
  1  6  1  0  0  0  0
  3  7  1  0  0  0  0
  7  8  1  0  0  0  0
  8  9  2  0  0  0  0
  8 10  1  0  0  0  0
 10 11  2  0  0  0  0
 11 12  1  0  0  0  0
 12 13  2  0  0  0  0
 13 14  1  0  0  0  0
 14 15  2  0  0  0  0
 10 15  1  0  0  0  0
  2 16  1  0  0  0  0
  1 17  1  0  0  0  0
 17 18  1  0  0  0  0
 18 19  1  0  0  0  0
 18 20  1  0  0  0  0
 20 21  2  0  0  0  0
 21 22  1  0  0  0  0
 22 23  2  0  0  0  0
 23 24  1  0  0  0  0
 24 25  2  0  0  0  0
 20 25  1  0  0  0  0
M  CHG  2  26   1  27  -1
M  END
>  <Name>
Lobeline HCl

>  <CAS>
134-63-4

>  <Formula>
C22H27NO2 HCl

>  <MolWt>
382.93 

>  <Bioactivity>
An alkaloid that has actions similar to nicotine on nicotinic cholinergic receptors but is less potent. It has been proposed for a variety of therapeutic uses including in respiratory disorders, peripheral vascular disorders, insomnia, and smoking cessation. 

>  <Pathways>
Neuroscience

>  <Target>
AChR antagonist

>  <Receptor>
Nicotinic Receptor ;Neuronal AChR

>  <Reference>
1. Meyer AC, et al. J Neurochem. 2013 Oct;127(2):187-98. 

$$$$
119302-91-9
  Mrv1561503291623562D          

 39 43  0  0  1  0            999 V2000
   -1.3851   -0.2199    0.0000 C   0  0  1  0  0  0  0  0  0  0  0  0
   -1.1048    0.5561    0.0000 C   0  0  0  0  0  0  0  0  0  0  0  0
   -0.5729   -0.0746    0.0000 C   0  0  2  0  0  0  0  0  0  0  0  0
   -0.0411   -0.7053    0.0000 C   0  0  2  0  0  0  0  0  0  0  0  0
    0.7710   -0.5601    0.0000 C   0  0  1  0  0  0  0  0  0  0  0  0
    1.0513    0.2158    0.0000 C   0  0  1  0  0  0  0  0  0  0  0  0
    1.4112    0.9582    0.0000 C   0  0  0  0  0  0  0  0  0  0  0  0
    1.8759    0.1890    0.0000 C   0  0  1  0  0  0  0  0  0  0  0  0
    2.3822    0.8403    0.0000 O   0  0  0  0  0  0  0  0  0  0  0  0
    2.0713    1.6045    0.0000 C   0  0  0  0  0  0  0  0  0  0  0  0
    1.2541    1.7173    0.0000 O   0  0  0  0  0  0  0  0  0  0  0  0
    2.5777    2.2558    0.0000 C   0  0  0  0  0  0  0  0  0  0  0  0
    2.1052   -0.6035    0.0000 C   0  0  1  0  0  0  0  0  0  0  0  0
    2.8811   -0.8838    0.0000 N   0  3  0  0  0  0  0  0  0  0  0  0
    2.5212   -1.6262    0.0000 C   0  0  0  0  0  0  0  0  0  0  0  0
    2.9842   -2.3090    0.0000 C   0  0  0  0  0  0  0  0  0  0  0  0
    2.6243   -3.0514    0.0000 C   0  0  0  0  0  0  0  0  0  0  0  0
    3.0787   -0.0828    0.0000 C   0  0  0  0  0  0  0  0  0  0  0  0
    3.9016   -0.0233    0.0000 C   0  0  0  0  0  0  0  0  0  0  0  0
    4.2125   -0.7875    0.0000 C   0  0  0  0  0  0  0  0  0  0  0  0
    3.5818   -1.3193    0.0000 C   0  0  0  0  0  0  0  0  0  0  0  0
    1.4223   -1.0665    0.0000 C   0  0  0  0  0  0  0  0  0  0  0  0
    0.5195    0.8465    0.0000 C   0  0  0  0  0  0  0  0  0  0  0  0
   -0.2927    0.7013    0.0000 C   0  0  0  0  0  0  0  0  0  0  0  0
   -0.3214   -1.4813    0.0000 C   0  0  0  0  0  0  0  0  0  0  0  0
   -1.1335   -1.6265    0.0000 C   0  0  0  0  0  0  0  0  0  0  0  0
   -1.6654   -0.9958    0.0000 C   0  0  1  0  0  0  0  0  0  0  0  0
   -2.4775   -1.1410    0.0000 C   0  0  0  0  0  0  0  0  0  0  0  0
   -3.0093   -0.5103    0.0000 C   0  0  2  0  0  0  0  0  0  0  0  0
   -3.8214   -0.6555    0.0000 O   0  0  0  0  0  0  0  0  0  0  0  0
   -2.7290    0.2656    0.0000 C   0  0  1  0  0  0  0  0  0  0  0  0
   -3.2608    0.8963    0.0000 N   0  0  0  0  0  0  0  0  0  0  0  0
   -4.0729    0.7511    0.0000 C   0  0  0  0  0  0  0  0  0  0  0  0
   -4.6048    1.3818    0.0000 C   0  0  0  0  0  0  0  0  0  0  0  0
   -4.3245    2.1578    0.0000 O   0  0  0  0  0  0  0  0  0  0  0  0
   -3.5123    2.3030    0.0000 C   0  0  0  0  0  0  0  0  0  0  0  0
   -2.9805    1.6723    0.0000 C   0  0  0  0  0  0  0  0  0  0  0  0
   -1.9169    0.4109    0.0000 C   0  0  0  0  0  0  0  0  0  0  0  0
    6.5696    0.0000    0.0000 Br  0  5  0  0  0  0  0  0  0  0  0  0
  1  2  1  1  0  0  0
  1  3  1  0  0  0  0
  3  4  1  0  0  0  0
  4  5  1  0  0  0  0
  5  6  1  0  0  0  0
  6  7  1  1  0  0  0
  6  8  1  0  0  0  0
  8  9  1  1  0  0  0
  9 10  1  0  0  0  0
 10 11  2  0  0  0  0
 10 12  1  0  0  0  0
  8 13  1  0  0  0  0
 13 14  1  1  0  0  0
 14 15  1  0  0  0  0
 15 16  1  0  0  0  0
 16 17  2  0  0  0  0
 14 18  1  0  0  0  0
 18 19  1  0  0  0  0
 19 20  1  0  0  0  0
 20 21  1  0  0  0  0
 14 21  1  0  0  0  0
 13 22  1  0  0  0  0
  5 22  1  1  0  0  0
  6 23  1  0  0  0  0
 23 24  1  0  0  0  0
  3 24  1  1  0  0  0
  4 25  1  6  0  0  0
 25 26  1  0  0  0  0
 26 27  1  0  0  0  0
  1 27  1  0  0  0  0
 27 28  1  1  0  0  0
 28 29  1  0  0  0  0
 29 30  1  6  0  0  0
 29 31  1  0  0  0  0
 31 32  1  1  0  0  0
 32 33  1  0  0  0  0
 33 34  1  0  0  0  0
 34 35  1  0  0  0  0
 35 36  1  0  0  0  0
 36 37  1  0  0  0  0
 32 37  1  0  0  0  0
 31 38  1  0  0  0  0
  1 38  1  0  0  0  0
M  CHG  2  14   1  39  -1
M  END
>  <Name>
Rocuronium bromide

>  <CAS>
119302-91-9

>  <Formula>
C32H53BrN2O4

>  <MolWt>
609.68 

>  <Bioactivity>
Rocuronium (rapid onset-curonium) is a desacetoxy analogue of vecuronium with a more rapid onset of action. It is an aminosteroid non-depolarizing neuromuscular blocker or muscle relaxant used in modern anaesthesia, to facilitate endotracheal intubation and to provide skeletal muscle relaxation during surgery or mechanical ventilation.
Introduced in 1994, rocuronium has rapid onset, and intermediate duration of action. It is marketed under the trade name of Zemuron in the United States and Esmeron in most other countries.

>  <Pathways>
Neuroscience

>  <Target>
AChR antagonist

>  <Receptor>
Muscarinic AChR

>  <Reference>
1. Jonsson Fagerlund M, et al. Anesthesiology. 2009 Jun;110(6):1244-52.

$$$$
173334-58-2
  Mrv1561503291623562D          

 86 85  0  0  1  0            999 V2000
    0.8171    0.2159    0.0000 C   0  0  1  0  0  0  0  0  0  0  0  0
    1.3571    0.8395    0.0000 C   0  0  0  0  0  0  0  0  0  0  0  0
    2.1673    0.6836    0.0000 C   0  0  0  0  0  0  0  0  0  0  0  0
    2.7074    1.3072    0.0000 C   0  0  0  0  0  0  0  0  0  0  0  0
    3.5175    1.1513    0.0000 C   0  0  0  0  0  0  0  0  0  0  0  0
    3.7875    0.3718    0.0000 C   0  0  0  0  0  0  0  0  0  0  0  0
    4.5977    0.2159    0.0000 O   0  0  0  0  0  0  0  0  0  0  0  0
    4.8677   -0.5637    0.0000 C   0  0  0  0  0  0  0  0  0  0  0  0
    3.2475   -0.2519    0.0000 C   0  0  0  0  0  0  0  0  0  0  0  0
    2.4373   -0.0959    0.0000 C   0  0  0  0  0  0  0  0  0  0  0  0
    4.0576    1.7750    0.0000 O   0  0  0  0  0  0  0  0  0  0  0  0
    4.8677    1.6191    0.0000 C   0  0  0  0  0  0  0  0  0  0  0  0
    5.4078    2.2427    0.0000 C   0  0  0  0  0  0  0  0  0  0  0  0
    6.2180    2.0868    0.0000 C   0  0  0  0  0  0  0  0  0  0  0  0
    6.7580    2.7104    0.0000 O   0  0  0  0  0  0  0  0  0  0  0  0
    7.5682    2.5545    0.0000 C   0  0  0  0  0  0  0  0  0  0  0  0
    0.0069    0.3718    0.0000 C   0  0  0  0  0  0  0  0  0  0  0  0
   -0.5332   -0.2519    0.0000 C   0  0  2  0  0  0  0  0  0  0  0  0
   -0.2631   -1.0314    0.0000 N   0  0  0  0  0  0  0  0  0  0  0  0
   -1.3433   -0.0959    0.0000 C   0  0  1  0  0  0  0  0  0  0  0  0
   -1.6133    0.6836    0.0000 O   0  0  0  0  0  0  0  0  0  0  0  0
   -1.8834   -0.7196    0.0000 C   0  0  0  0  0  0  0  0  0  0  0  0
   -2.6935   -0.5637    0.0000 C   0  0  2  0  0  0  0  0  0  0  0  0
   -3.2336   -1.1873    0.0000 C   0  0  0  0  0  0  0  0  0  0  0  0
   -2.9636   -1.9669    0.0000 O   0  0  0  0  0  0  0  0  0  0  0  0
   -4.0437   -1.0314    0.0000 N   0  0  0  0  0  0  0  0  0  0  0  0
   -4.5838   -1.6550    0.0000 C   0  0  0  0  0  0  0  0  0  0  0  0
   -5.3940   -1.4991    0.0000 C   0  0  0  0  0  0  0  0  0  0  0  0
   -6.2041   -1.3432    0.0000 C   0  0  0  0  0  0  0  0  0  0  0  0
   -6.7442   -1.9669    0.0000 O   0  0  0  0  0  0  0  0  0  0  0  0
   -6.4741   -0.5637    0.0000 N   0  0  0  0  0  0  0  0  0  0  0  0
   -5.2381   -0.6890    0.0000 C   0  0  0  0  0  0  0  0  0  0  0  0
   -5.5499   -2.3093    0.0000 C   0  0  0  0  0  0  0  0  0  0  0  0
   -2.9636    0.2159    0.0000 C   0  0  0  0  0  0  0  0  0  0  0  0
   -2.4235    0.8395    0.0000 C   0  0  0  0  0  0  0  0  0  0  0  0
   -3.7737    0.3718    0.0000 C   0  0  0  0  0  0  0  0  0  0  0  0
    1.0871   -0.5637    0.0000 C   0  0  0  0  0  0  0  0  0  0  0  0
    1.8972   -0.7196    0.0000 C   0  0  0  0  0  0  0  0  0  0  0  0
    0.5470   -1.1873    0.0000 C   0  0  0  0  0  0  0  0  0  0  0  0
   17.2165    0.2159    0.0000 C   0  0  1  0  0  0  0  0  0  0  0  0
   17.7566    0.8395    0.0000 C   0  0  0  0  0  0  0  0  0  0  0  0
   18.5667    0.6836    0.0000 C   0  0  0  0  0  0  0  0  0  0  0  0
   19.1068    1.3072    0.0000 C   0  0  0  0  0  0  0  0  0  0  0  0
   19.9170    1.1513    0.0000 C   0  0  0  0  0  0  0  0  0  0  0  0
   20.1870    0.3718    0.0000 C   0  0  0  0  0  0  0  0  0  0  0  0
   20.9971    0.2159    0.0000 O   0  0  0  0  0  0  0  0  0  0  0  0
   21.2672   -0.5637    0.0000 C   0  0  0  0  0  0  0  0  0  0  0  0
   19.6469   -0.2519    0.0000 C   0  0  0  0  0  0  0  0  0  0  0  0
   18.8368   -0.0959    0.0000 C   0  0  0  0  0  0  0  0  0  0  0  0
   20.4571    1.7750    0.0000 O   0  0  0  0  0  0  0  0  0  0  0  0
   21.2672    1.6191    0.0000 C   0  0  0  0  0  0  0  0  0  0  0  0
   21.8073    2.2427    0.0000 C   0  0  0  0  0  0  0  0  0  0  0  0
   22.6174    2.0868    0.0000 C   0  0  0  0  0  0  0  0  0  0  0  0
   23.1575    2.7104    0.0000 O   0  0  0  0  0  0  0  0  0  0  0  0
   23.9676    2.5545    0.0000 C   0  0  0  0  0  0  0  0  0  0  0  0
   16.4064    0.3718    0.0000 C   0  0  0  0  0  0  0  0  0  0  0  0
   15.8663   -0.2519    0.0000 C   0  0  2  0  0  0  0  0  0  0  0  0
   16.1363   -1.0314    0.0000 N   0  0  0  0  0  0  0  0  0  0  0  0
   15.0562   -0.0959    0.0000 C   0  0  1  0  0  0  0  0  0  0  0  0
   14.7861    0.6836    0.0000 O   0  0  0  0  0  0  0  0  0  0  0  0
   14.5161   -0.7196    0.0000 C   0  0  0  0  0  0  0  0  0  0  0  0
   13.7059   -0.5637    0.0000 C   0  0  2  0  0  0  0  0  0  0  0  0
   13.1659   -1.1873    0.0000 C   0  0  0  0  0  0  0  0  0  0  0  0
   13.4359   -1.9669    0.0000 O   0  0  0  0  0  0  0  0  0  0  0  0
   12.3557   -1.0314    0.0000 N   0  0  0  0  0  0  0  0  0  0  0  0
   11.8156   -1.6550    0.0000 C   0  0  0  0  0  0  0  0  0  0  0  0
   11.0055   -1.4991    0.0000 C   0  0  0  0  0  0  0  0  0  0  0  0
   10.1954   -1.3432    0.0000 C   0  0  0  0  0  0  0  0  0  0  0  0
    9.6553   -1.9669    0.0000 O   0  0  0  0  0  0  0  0  0  0  0  0
    9.9253   -0.5637    0.0000 N   0  0  0  0  0  0  0  0  0  0  0  0
   11.1614   -0.6890    0.0000 C   0  0  0  0  0  0  0  0  0  0  0  0
   10.8496   -2.3093    0.0000 C   0  0  0  0  0  0  0  0  0  0  0  0
   13.4359    0.2159    0.0000 C   0  0  0  0  0  0  0  0  0  0  0  0
   13.9760    0.8395    0.0000 C   0  0  0  0  0  0  0  0  0  0  0  0
   12.6258    0.3718    0.0000 C   0  0  0  0  0  0  0  0  0  0  0  0
   17.4866   -0.5637    0.0000 C   0  0  0  0  0  0  0  0  0  0  0  0
   18.2967   -0.7196    0.0000 C   0  0  0  0  0  0  0  0  0  0  0  0
   16.9465   -1.1873    0.0000 C   0  0  0  0  0  0  0  0  0  0  0  0
    1.6500   -4.6737    0.0000 O   0  0  0  0  0  0  0  0  0  0  0  0
    0.8250   -4.6737    0.0000 C   0  0  0  0  0  0  0  0  0  0  0  0
    0.4125   -3.9593    0.0000 O   0  0  0  0  0  0  0  0  0  0  0  0
    0.4125   -5.3882    0.0000 C   0  0  0  0  0  0  0  0  0  0  0  0
   -0.4125   -5.3882    0.0000 C   0  0  0  0  0  0  0  0  0  0  0  0
   -0.8250   -6.1027    0.0000 C   0  0  0  0  0  0  0  0  0  0  0  0
   -0.4125   -6.8172    0.0000 O   0  0  0  0  0  0  0  0  0  0  0  0
   -1.6500   -6.1027    0.0000 O   0  0  0  0  0  0  0  0  0  0  0  0
  1  2  1  0  0  0  0
  2  3  1  0  0  0  0
  3  4  2  0  0  0  0
  4  5  1  0  0  0  0
  5  6  2  0  0  0  0
  6  7  1  0  0  0  0
  7  8  1  0  0  0  0
  6  9  1  0  0  0  0
  9 10  2  0  0  0  0
  3 10  1  0  0  0  0
  5 11  1  0  0  0  0
 11 12  1  0  0  0  0
 12 13  1  0  0  0  0
 13 14  1  0  0  0  0
 14 15  1  0  0  0  0
 15 16  1  0  0  0  0
  1 17  1  6  0  0  0
 17 18  1  0  0  0  0
 18 19  1  6  0  0  0
 18 20  1  0  0  0  0
 20 21  1  6  0  0  0
 20 22  1  0  0  0  0
 22 23  1  0  0  0  0
 23 24  1  6  0  0  0
 24 25  2  0  0  0  0
 24 26  1  0  0  0  0
 26 27  1  0  0  0  0
 27 28  1  0  0  0  0
 28 29  1  0  0  0  0
 29 30  2  0  0  0  0
 29 31  1  0  0  0  0
 28 32  1  0  0  0  0
 28 33  1  0  0  0  0
 23 34  1  0  0  0  0
 34 35  1  0  0  0  0
 34 36  1  0  0  0  0
  1 37  1  0  0  0  0
 37 38  1  0  0  0  0
 37 39  1  0  0  0  0
 40 41  1  0  0  0  0
 41 42  1  0  0  0  0
 42 43  2  0  0  0  0
 43 44  1  0  0  0  0
 44 45  2  0  0  0  0
 45 46  1  0  0  0  0
 46 47  1  0  0  0  0
 45 48  1  0  0  0  0
 48 49  2  0  0  0  0
 42 49  1  0  0  0  0
 44 50  1  0  0  0  0
 50 51  1  0  0  0  0
 51 52  1  0  0  0  0
 52 53  1  0  0  0  0
 53 54  1  0  0  0  0
 54 55  1  0  0  0  0
 40 56  1  6  0  0  0
 56 57  1  0  0  0  0
 57 58  1  6  0  0  0
 57 59  1  0  0  0  0
 59 60  1  6  0  0  0
 59 61  1  0  0  0  0
 61 62  1  0  0  0  0
 62 63  1  6  0  0  0
 63 64  2  0  0  0  0
 63 65  1  0  0  0  0
 65 66  1  0  0  0  0
 66 67  1  0  0  0  0
 67 68  1  0  0  0  0
 68 69  2  0  0  0  0
 68 70  1  0  0  0  0
 67 71  1  0  0  0  0
 67 72  1  0  0  0  0
 62 73  1  0  0  0  0
 73 74  1  0  0  0  0
 73 75  1  0  0  0  0
 40 76  1  0  0  0  0
 76 77  1  0  0  0  0
 76 78  1  0  0  0  0
 79 80  2  0  0  0  0
 80 81  1  0  0  0  0
 80 82  1  0  0  0  0
 82 83  2  0  0  0  0
 83 84  1  0  0  0  0
 84 85  2  0  0  0  0
 84 86  1  0  0  0  0
M  END
>  <Name>
Aliskiren hemifumarate

>  <CAS>
173334-58-2

>  <Formula>
C30H53N3O6.1/2C4H4O4

>  <MolWt>
1219.60 

>  <Bioactivity>
Aliskiren hemifumarate is a direct renin inhibitor 

>  <Pathways>
Angiogenesis;Endocrinology/ Hormones

>  <Target>
RAAS inhibitor; ACE inhibitor

>  <Receptor>
renin

>  <Reference>
1. Nakamura Y, et al. ACS Med Chem Lett, 2012, 3(9), 754–758.

$$$$
T1465
  Mrv1561503291623562D          

 35 36  0  0  1  0            999 V2000
   -2.8579    9.0750    0.0000 C   0  0  1  0  0  0  0  0  0  0  0  0
   -3.6829    9.0750    0.0000 C   0  0  2  0  0  0  0  0  0  0  0  0
   -4.3974    8.6625    0.0000 C   0  0  2  0  0  0  0  0  0  0  0  0
   -5.1118    9.0750    0.0000 C   0  0  2  0  0  0  0  0  0  0  0  0
   -5.8263    8.6625    0.0000 C   0  0  0  0  0  0  0  0  0  0  0  0
   -5.1118    9.9000    0.0000 O   0  0  0  0  0  0  0  0  0  0  0  0
   -4.3974    7.8375    0.0000 C   0  0  0  0  0  0  0  0  0  0  0  0
   -3.2704    9.7895    0.0000 O   0  0  0  0  0  0  0  0  0  0  0  0
   -2.1434    8.6625    0.0000 C   0  0  0  0  0  0  0  0  0  0  0  0
   -2.1434    7.8375    0.0000 C   0  0  2  0  0  0  0  0  0  0  0  0
   -1.4289    7.4250    0.0000 C   0  0  2  0  0  0  0  0  0  0  0  0
   -1.4289    6.6000    0.0000 C   0  0  2  0  0  0  0  0  0  0  0  0
   -2.1434    6.1875    0.0000 C   0  0  2  0  0  0  0  0  0  0  0  0
   -2.1434    5.3625    0.0000 C   0  0  0  0  0  0  0  0  0  0  0  0
   -1.4289    4.9500    0.0000 C   0  0  0  0  0  0  0  0  0  0  0  0
   -1.4289    4.1250    0.0000 C   0  0  0  0  0  0  0  0  0  0  0  0
   -0.7145    3.7125    0.0000 C   0  0  0  0  0  0  0  0  0  0  0  0
    0.0000    4.1250    0.0000 O   0  0  0  0  0  0  0  0  0  0  0  0
    0.7145    3.7125    0.0000 C   0  0  0  0  0  0  0  0  0  0  0  0
    1.4289    4.1250    0.0000 C   0  0  0  0  0  0  0  0  0  0  0  0
    2.1434    3.7125    0.0000 C   0  0  0  0  0  0  0  0  0  0  0  0
    2.8579    4.1250    0.0000 C   0  0  0  0  0  0  0  0  0  0  0  0
    3.5724    3.7125    0.0000 C   0  0  0  0  0  0  0  0  0  0  0  0
    4.2868    4.1250    0.0000 C   0  0  0  0  0  0  0  0  0  0  0  0
    5.0013    3.7125    0.0000 C   0  0  0  0  0  0  0  0  0  0  0  0
    5.7158    4.1250    0.0000 C   0  0  0  0  0  0  0  0  0  0  0  0
    6.4302    3.7125    0.0000 C   0  0  0  0  0  0  0  0  0  0  0  0
    7.1447    4.1250    0.0000 O   0  0  0  0  0  0  0  0  0  0  0  0
    6.4302    2.8875    0.0000 O   0  0  0  0  0  0  0  0  0  0  0  0
   -0.7145    2.8875    0.0000 O   0  0  0  0  0  0  0  0  0  0  0  0
   -0.7145    5.3625    0.0000 C   0  0  0  0  0  0  0  0  0  0  0  0
   -2.8579    6.6000    0.0000 O   0  0  0  0  0  0  0  0  0  0  0  0
   -2.8579    7.4250    0.0000 C   0  0  0  0  0  0  0  0  0  0  0  0
   -0.7145    6.1875    0.0000 O   0  0  0  0  0  0  0  0  0  0  0  0
   -0.7145    7.8375    0.0000 O   0  0  0  0  0  0  0  0  0  0  0  0
  1  2  1  0  0  0  0
  2  3  1  6  0  0  0
  3  4  1  0  0  0  0
  4  5  1  0  0  0  0
  4  6  1  6  0  0  0
  3  7  1  1  0  0  0
  2  8  1  0  0  0  0
  1  8  1  0  0  0  0
  1  9  1  1  0  0  0
 10  9  1  6  0  0  0
 10 11  1  0  0  0  0
 11 12  1  0  0  0  0
 12 13  1  0  0  0  0
 13 14  1  6  0  0  0
 14 15  1  0  0  0  0
 15 16  2  0  0  0  0
 16 17  1  0  0  0  0
 17 18  1  0  0  0  0
 18 19  1  0  0  0  0
 19 20  1  0  0  0  0
 20 21  1  0  0  0  0
 21 22  1  0  0  0  0
 22 23  1  0  0  0  0
 23 24  1  0  0  0  0
 24 25  1  0  0  0  0
 25 26  1  0  0  0  0
 26 27  1  0  0  0  0
 27 28  1  0  0  0  0
 27 29  2  0  0  0  0
 17 30  2  0  0  0  0
 15 31  1  0  0  0  0
 13 32  1  0  0  0  0
 32 33  1  0  0  0  0
 10 33  1  0  0  0  0
 12 34  1  1  0  0  0
 11 35  1  1  0  0  0
M  END
>  <Name>
Mupirocin

>  <CAS>
12650-69-0

>  <Formula>
C26H44O9

>  <MolWt>
500.64 

>  <Bioactivity>
A topically used antibiotic from a strain of Pseudomonas fluorescens. It has shown excellent activity against gram-positive staphylococci and streptococci. The antibiotic is used primarily for the treatment of primary and secondary skin disorders, nasal infections, and wound healing. 

>  <Pathways>
DNA Damage/DNA Repair

>  <Target>
DNA Synthesis inhibitor

>  <Receptor>
DNA Synthesis

>  <Reference>
1. Hurdle JG, et al. J Antimicrob Chemother. 2004 Jan;53(1):102-4. 

$$$$
53-16-7
  Mrv1561503291623562D          

 20 23  0  0  1  0            999 V2000
    0.7475   -2.9779    0.0000 C   0  0  1  0  0  0  0  0  0  0  0  0
    1.5596   -2.8327    0.0000 C   0  0  1  0  0  0  0  0  0  0  0  0
    2.0914   -3.4634    0.0000 C   0  0  1  0  0  0  0  0  0  0  0  0
    2.9035   -3.3182    0.0000 C   0  0  0  0  0  0  0  0  0  0  0  0
    3.1838   -2.5422    0.0000 C   0  0  0  0  0  0  0  0  0  0  0  0
    3.9960   -2.3970    0.0000 C   0  0  0  0  0  0  0  0  0  0  0  0
    4.5278   -3.0277    0.0000 C   0  0  0  0  0  0  0  0  0  0  0  0
    5.3399   -2.8825    0.0000 O   0  0  0  0  0  0  0  0  0  0  0  0
    4.2475   -3.8037    0.0000 C   0  0  0  0  0  0  0  0  0  0  0  0
    3.4354   -3.9489    0.0000 C   0  0  0  0  0  0  0  0  0  0  0  0
    2.6520   -1.9115    0.0000 C   0  0  0  0  0  0  0  0  0  0  0  0
    1.8399   -2.0567    0.0000 C   0  0  0  0  0  0  0  0  0  0  0  0
    1.8111   -4.2393    0.0000 C   0  0  0  0  0  0  0  0  0  0  0  0
    0.9990   -4.3845    0.0000 C   0  0  0  0  0  0  0  0  0  0  0  0
    0.4672   -3.7538    0.0000 C   0  0  2  0  0  0  0  0  0  0  0  0
   -0.3574   -3.7270    0.0000 C   0  0  0  0  0  0  0  0  0  0  0  0
   -0.8637   -4.3783    0.0000 O   0  0  0  0  0  0  0  0  0  0  0  0
   -0.5867   -2.9345    0.0000 C   0  0  0  0  0  0  0  0  0  0  0  0
    0.0962   -2.4715    0.0000 C   0  0  0  0  0  0  0  0  0  0  0  0
    0.1073   -4.4962    0.0000 C   0  0  0  0  0  0  0  0  0  0  0  0
  1  2  1  0  0  0  0
  2  3  1  0  0  0  0
  3  4  1  0  0  0  0
  4  5  2  0  0  0  0
  5  6  1  0  0  0  0
  6  7  2  0  0  0  0
  7  8  1  0  0  0  0
  7  9  1  0  0  0  0
  9 10  2  0  0  0  0
  4 10  1  0  0  0  0
  5 11  1  0  0  0  0
 11 12  1  0  0  0  0
  2 12  1  6  0  0  0
  3 13  1  1  0  0  0
 13 14  1  0  0  0  0
 14 15  1  0  0  0  0
  1 15  1  0  0  0  0
 15 16  1  0  0  0  0
 16 17  2  0  0  0  0
 16 18  1  0  0  0  0
 18 19  1  0  0  0  0
  1 19  1  1  0  0  0
 15 20  1  1  0  0  0
M  END
>  <Name>
Aquacrine

>  <CAS>
53-16-7

>  <Formula>
C18H22O2

>  <MolWt>
270.37 

>  <Bioactivity>
Estrone is an estrogenic hormone.

>  <Pathways>
Endocrinology/ Hormones

>  <Target>
Estrogen/Progestogen Receptor agonist

>  <Receptor>
Estrogen/progestogen Receptor

>  <Reference>
1. Margeat E, et al. J Mol Biol. 2003 Feb 7;326(1):77-92.

$$$$
T1219
  Mrv1561503291623562D          

 36 37  0  0  1  0            999 V2000
   -0.9803    0.4986    0.0000 C   0  0  2  0  0  0  0  0  0  0  0  0
   -0.2658    0.0861    0.0000 C   0  0  2  0  0  0  0  0  0  0  0  0
   -0.2658   -0.7389    0.0000 C   0  0  2  0  0  0  0  0  0  0  0  0
    0.4487   -1.1514    0.0000 O   0  0  0  0  0  0  0  0  0  0  0  0
    0.4487   -1.9764    0.0000 C   0  0  1  0  0  0  0  0  0  0  0  0
   -0.2658   -2.3889    0.0000 O   0  0  0  0  0  0  0  0  0  0  0  0
   -0.2658   -3.2139    0.0000 C   0  0  0  0  0  0  0  0  0  0  0  0
    0.4487   -3.6264    0.0000 C   0  0  0  0  0  0  0  0  0  0  0  0
    1.1632   -3.2139    0.0000 C   0  0  0  0  0  0  0  0  0  0  0  0
    1.1632   -2.3889    0.0000 C   0  0  1  0  0  0  0  0  0  0  0  0
    1.8776   -1.9764    0.0000 N   0  0  0  0  0  0  0  0  0  0  0  0
   -0.9803   -3.6264    0.0000 C   0  0  0  0  0  0  0  0  0  0  0  0
   -0.9803   -4.4514    0.0000 N   0  0  0  0  0  0  0  0  0  0  0  0
   -0.9803   -1.1514    0.0000 C   0  0  1  0  0  0  0  0  0  0  0  0
   -0.9803   -1.9764    0.0000 N   0  0  0  0  0  0  0  0  0  0  0  0
   -1.6947   -0.7389    0.0000 C   0  0  0  0  0  0  0  0  0  0  0  0
   -1.6947    0.0861    0.0000 C   0  0  1  0  0  0  0  0  0  0  0  0
   -2.4092    0.4986    0.0000 N   0  0  0  0  0  0  0  0  0  0  0  0
    0.4487    0.4986    0.0000 O   0  0  0  0  0  0  0  0  0  0  0  0
   -0.9803    1.3236    0.0000 O   0  0  0  0  0  0  0  0  0  0  0  0
   -0.2658    1.7361    0.0000 C   0  0  2  0  0  0  0  0  0  0  0  0
   -0.2658    2.5611    0.0000 C   0  0  1  0  0  0  0  0  0  0  0  0
    0.4487    2.9736    0.0000 C   0  0  2  0  0  0  0  0  0  0  0  0
    1.1632    2.5611    0.0000 C   0  0  1  0  0  0  0  0  0  0  0  0
    1.4453    3.3363    0.0000 C   0  0  0  0  0  0  0  0  0  0  0  0
    1.9756    2.4178    0.0000 O   0  0  0  0  0  0  0  0  0  0  0  0
    1.1632    1.7361    0.0000 C   0  0  0  0  0  0  0  0  0  0  0  0
    0.4487    1.3236    0.0000 O   0  0  0  0  0  0  0  0  0  0  0  0
    0.4487    3.7986    0.0000 N   0  0  0  0  0  0  0  0  0  0  0  0
    1.1632    4.2111    0.0000 C   0  0  0  0  0  0  0  0  0  0  0  0
   -0.9803    2.9736    0.0000 O   0  0  0  0  0  0  0  0  0  0  0  0
    4.5685   -0.8250    0.0000 O   0  0  0  0  0  0  0  0  0  0  0  0
    4.5685    0.0000    0.0000 S   0  0  0  0  0  0  0  0  0  0  0  0
    4.5685    0.8250    0.0000 O   0  0  0  0  0  0  0  0  0  0  0  0
    5.3935   -0.0000    0.0000 O   0  0  0  0  0  0  0  0  0  0  0  0
    3.7435    0.0000    0.0000 O   0  0  0  0  0  0  0  0  0  0  0  0
  1  2  1  0  0  0  0
  2  3  1  0  0  0  0
  3  4  1  6  0  0  0
  5  4  1  6  0  0  0
  5  6  1  0  0  0  0
  6  7  1  0  0  0  0
  7  8  2  0  0  0  0
  8  9  1  0  0  0  0
  9 10  1  0  0  0  0
  5 10  1  0  0  0  0
 10 11  1  6  0  0  0
  7 12  1  0  0  0  0
 12 13  1  0  0  0  0
  3 14  1  0  0  0  0
 14 15  1  1  0  0  0
 14 16  1  0  0  0  0
 16 17  1  0  0  0  0
  1 17  1  0  0  0  0
 17 18  1  1  0  0  0
  2 19  1  1  0  0  0
  1 20  1  6  0  0  0
 21 20  1  6  0  0  0
 21 22  1  0  0  0  0
 22 23  1  0  0  0  0
 23 24  1  0  0  0  0
 24 25  1  6  0  0  0
 24 26  1  1  0  0  0
 24 27  1  0  0  0  0
 27 28  1  0  0  0  0
 21 28  1  0  0  0  0
 23 29  1  1  0  0  0
 29 30  1  0  0  0  0
 22 31  1  6  0  0  0
 32 33  2  0  0  0  0
 33 34  1  0  0  0  0
 33 35  1  0  0  0  0
 33 36  2  0  0  0  0
M  END
>  <Name>
Sisomicin Sulfate

>  <CAS>
53179-09-2

>  <Formula>
2(C19H37N5O7)5(H2SO4)

>  <MolWt>
1385.43 

>  <Bioactivity>
Gentamicin is an aminoglycoside antibiotic composed of a mixture of related gentamicin components and fractions and is used to treat many types of bacterial infections, particularly those caused by Gram-negative organisms. 

>  <Pathways>
Microbiology & Virology

>  <Target>
Antibacterial

>  <Receptor>
protein-synthesis

>  <Reference>
1. Hendriks JG, et al. Biomaterials. 2004 Feb;25(3):545-56.

$$$$
T1791
  Mrv1561503291623562D          

 38 41  0  0  0  0            999 V2000
   -2.1434   -2.8875    0.0000 C   0  0  0  0  0  0  0  0  0  0  0  0
   -2.1434   -3.7125    0.0000 C   0  0  0  0  0  0  0  0  0  0  0  0
   -1.4289   -4.1250    0.0000 C   0  0  0  0  0  0  0  0  0  0  0  0
   -1.4289   -4.9500    0.0000 C   0  0  0  0  0  0  0  0  0  0  0  0
   -2.1434   -5.3625    0.0000 C   0  0  0  0  0  0  0  0  0  0  0  0
   -2.8579   -4.9500    0.0000 C   0  0  0  0  0  0  0  0  0  0  0  0
   -2.8579   -4.1250    0.0000 C   0  0  0  0  0  0  0  0  0  0  0  0
   -3.5724   -3.7125    0.0000 C   0  0  0  0  0  0  0  0  0  0  0  0
   -4.2868   -4.1250    0.0000 C   0  0  0  0  0  0  0  0  0  0  0  0
   -5.0013   -3.7125    0.0000 C   0  0  0  0  0  0  0  0  0  0  0  0
   -5.0013   -2.8875    0.0000 N   0  0  0  0  0  0  0  0  0  0  0  0
   -4.2868   -2.4750    0.0000 C   0  0  0  0  0  0  0  0  0  0  0  0
   -3.5724   -2.8875    0.0000 C   0  0  0  0  0  0  0  0  0  0  0  0
   -2.1434   -6.1875    0.0000 O   0  0  0  0  0  0  0  0  0  0  0  0
   -1.4289   -6.6000    0.0000 C   0  0  0  0  0  0  0  0  0  0  0  0
   -0.7145   -6.1875    0.0000 C   0  0  0  0  0  0  0  0  0  0  0  0
   -1.4289   -7.4250    0.0000 C   0  0  0  0  0  0  0  0  0  0  0  0
   -0.7145   -5.3625    0.0000 N   0  0  0  0  0  0  0  0  0  0  0  0
   -0.0000   -4.9500    0.0000 C   0  0  0  0  0  0  0  0  0  0  0  0
   -0.0000   -4.1250    0.0000 N   0  0  0  0  0  0  0  0  0  0  0  0
    0.7145   -3.7125    0.0000 C   0  0  0  0  0  0  0  0  0  0  0  0
    1.4289   -4.1250    0.0000 C   0  0  0  0  0  0  0  0  0  0  0  0
    1.4289   -4.9500    0.0000 C   0  0  0  0  0  0  0  0  0  0  0  0
    0.7145   -5.3625    0.0000 N   0  0  0  0  0  0  0  0  0  0  0  0
    2.1434   -5.3625    0.0000 N   0  0  0  0  0  0  0  0  0  0  0  0
    2.8579   -4.9500    0.0000 C   0  0  0  0  0  0  0  0  0  0  0  0
    2.8579   -4.1250    0.0000 C   0  0  0  0  0  0  0  0  0  0  0  0
    3.5724   -3.7125    0.0000 C   0  0  0  0  0  0  0  0  0  0  0  0
    4.2868   -4.1250    0.0000 C   0  0  0  0  0  0  0  0  0  0  0  0
    4.2868   -4.9500    0.0000 C   0  0  0  0  0  0  0  0  0  0  0  0
    3.5724   -5.3625    0.0000 C   0  0  0  0  0  0  0  0  0  0  0  0
    3.5724   -6.1875    0.0000 S   0  0  0  0  0  0  0  0  0  0  0  0
    2.7474   -6.1875    0.0000 O   0  0  0  0  0  0  0  0  0  0  0  0
    4.3974   -6.1875    0.0000 O   0  0  0  0  0  0  0  0  0  0  0  0
    3.5724   -7.0125    0.0000 C   0  0  0  0  0  0  0  0  0  0  0  0
    4.2868   -7.4250    0.0000 C   0  0  0  0  0  0  0  0  0  0  0  0
    2.8579   -7.4250    0.0000 C   0  0  0  0  0  0  0  0  0  0  0  0
    2.1434   -3.7125    0.0000 Cl  0  0  0  0  0  0  0  0  0  0  0  0
  1  2  1  0  0  0  0
  2  3  2  0  0  0  0
  3  4  1  0  0  0  0
  4  5  2  0  0  0  0
  5  6  1  0  0  0  0
  6  7  2  0  0  0  0
  2  7  1  0  0  0  0
  7  8  1  0  0  0  0
  8  9  1  0  0  0  0
  9 10  1  0  0  0  0
 10 11  1  0  0  0  0
 11 12  1  0  0  0  0
 12 13  1  0  0  0  0
  8 13  1  0  0  0  0
  5 14  1  0  0  0  0
 14 15  1  0  0  0  0
 15 16  1  0  0  0  0
 15 17  1  0  0  0  0
  4 18  1  0  0  0  0
 18 19  1  0  0  0  0
 19 20  2  0  0  0  0
 20 21  1  0  0  0  0
 21 22  2  0  0  0  0
 22 23  1  0  0  0  0
 23 24  2  0  0  0  0
 19 24  1  0  0  0  0
 23 25  1  0  0  0  0
 25 26  1  0  0  0  0
 26 27  2  0  0  0  0
 27 28  1  0  0  0  0
 28 29  2  0  0  0  0
 29 30  1  0  0  0  0
 30 31  2  0  0  0  0
 26 31  1  0  0  0  0
 31 32  1  0  0  0  0
 32 33  2  0  0  0  0
 32 34  2  0  0  0  0
 32 35  1  0  0  0  0
 35 36  1  0  0  0  0
 35 37  1  0  0  0  0
 22 38  1  0  0  0  0
M  END
>  <Name>
LDK378(Ceritinib)

>  <CAS>
1032900-25-6

>  <Formula>
C28H36ClN5O3S

>  <MolWt>
558.14 

>  <Bioactivity>
Ceritinib is an orally available inhibitor of the receptor tyrosine kinase activity of anaplastic lymphoma kinase (ALK) with antineoplastic activity. Upon administration, ceritinib binds to and inhibits wild-type ALK kinase, ALK fusion proteins and ALK point mutation variants. Inhibition of ALK leads to both the disruption of ALK-mediated signaling and the inhibition of cell growth in ALK-overexpressing tumor cells. ALK belongs to the insulin receptor superfamily and plays an important role in nervous system development. ALK dysregulation and gene rearrangements are associated with a variety of tumor cell types.

>  <Pathways>
Tyrosine Kinase/Adaptors

>  <Target>
TGF-beta/Smad inhibitor; IGF-1R inhibitor

>  <Receptor>
ALK,IR, IGF-1R

>  <Reference>
1. Marsilje TH, et al. J Med Chem. 2013, Jun 6.

$$$$
T1207
  Mrv1561503291623562D          

 29 31  0  0  1  0            999 V2000
    0.7145   -0.4125    0.0000 C   0  0  2  0  0  0  0  0  0  0  0  0
    0.7145   -1.2375    0.0000 C   0  0  2  0  0  0  0  0  0  0  0  0
    0.0000   -1.6500    0.0000 C   0  0  2  0  0  0  0  0  0  0  0  0
   -0.7145   -1.2375    0.0000 C   0  0  0  0  0  0  0  0  0  0  0  0
   -0.7145   -0.4125    0.0000 C   0  0  0  0  0  0  0  0  0  0  0  0
   -0.0000   -0.0000    0.0000 C   0  0  0  0  0  0  0  0  0  0  0  0
   -0.0000    0.8250    0.0000 C   0  0  0  0  0  0  0  0  0  0  0  0
    0.7145    1.2375    0.0000 C   0  0  1  0  0  0  0  0  0  0  0  0
    1.4289    0.8250    0.0000 C   0  0  0  0  0  0  0  0  0  0  0  0
    1.4289   -0.0000    0.0000 C   0  0  2  0  0  0  0  0  0  0  0  0
    2.1434   -0.4125    0.0000 O   0  0  0  0  0  0  0  0  0  0  0  0
    2.8579   -0.0000    0.0000 C   0  0  0  0  0  0  0  0  0  0  0  0
    2.8579    0.8250    0.0000 O   0  0  0  0  0  0  0  0  0  0  0  0
    3.5724   -0.4125    0.0000 C   0  0  2  0  0  0  0  0  0  0  0  0
    4.2868   -0.0000    0.0000 C   0  0  0  0  0  0  0  0  0  0  0  0
    5.0013   -0.4125    0.0000 C   0  0  0  0  0  0  0  0  0  0  0  0
    3.5724   -1.2375    0.0000 C   0  0  0  0  0  0  0  0  0  0  0  0
    0.7145    2.0625    0.0000 C   0  0  0  0  0  0  0  0  0  0  0  0
    0.0000   -2.4750    0.0000 C   0  0  0  0  0  0  0  0  0  0  0  0
    1.4289   -1.6500    0.0000 C   0  0  0  0  0  0  0  0  0  0  0  0
    1.4289   -2.4750    0.0000 C   0  0  0  0  0  0  0  0  0  0  0  0
    2.1434   -2.8875    0.0000 C   0  0  1  0  0  0  0  0  0  0  0  0
    2.8579   -2.4750    0.0000 O   0  0  0  0  0  0  0  0  0  0  0  0
    3.5724   -2.8875    0.0000 C   0  0  0  0  0  0  0  0  0  0  0  0
    4.2868   -2.4750    0.0000 O   0  0  0  0  0  0  0  0  0  0  0  0
    3.5724   -3.7125    0.0000 C   0  0  0  0  0  0  0  0  0  0  0  0
    2.8579   -4.1250    0.0000 C   0  0  2  0  0  0  0  0  0  0  0  0
    2.8579   -4.9500    0.0000 O   0  0  0  0  0  0  0  0  0  0  0  0
    2.1434   -3.7125    0.0000 C   0  0  0  0  0  0  0  0  0  0  0  0
  1  2  1  0  0  0  0
  2  3  1  0  0  0  0
  3  4  1  0  0  0  0
  4  5  2  0  0  0  0
  5  6  1  0  0  0  0
  1  6  1  6  0  0  0
  6  7  2  0  0  0  0
  7  8  1  0  0  0  0
  8  9  1  0  0  0  0
  9 10  1  0  0  0  0
  1 10  1  0  0  0  0
 10 11  1  6  0  0  0
 11 12  1  0  0  0  0
 12 13  2  0  0  0  0
 12 14  1  0  0  0  0
 14 15  1  0  0  0  0
 15 16  1  0  0  0  0
 14 17  1  6  0  0  0
  8 18  1  6  0  0  0
  3 19  1  1  0  0  0
  2 20  1  1  0  0  0
 20 21  1  0  0  0  0
 22 21  1  1  0  0  0
 22 23  1  0  0  0  0
 23 24  1  0  0  0  0
 24 25  2  0  0  0  0
 24 26  1  0  0  0  0
 26 27  1  0  0  0  0
 27 28  1  6  0  0  0
 27 29  1  0  0  0  0
 22 29  1  0  0  0  0
M  END
>  <Name>
Lovastatin

>  <CAS>
75330-75-5

>  <Formula>
C24H36O5

>  <MolWt>
404.54 

>  <Bioactivity>
Lovastatin is a HMG-CoA Reductase Inhibitor. 

>  <Pathways>
Chromatin/Epigenetic; Metabolism

>  <Target>
HDAC inhibitor;HMG-CoA reductase inhibitor;Integrin

>  <Receptor>
HDAC2;HMG-CoA reductase; Integrin

>  <Reference>
1. Pahan K, et al. J Clin Invest, 1997, 100(11), 2671-2679.

$$$$
T0971
  Mrv1561503291623562D          

 58 61  0  0  1  0            999 V2000
   -2.8579    0.0000    0.0000 C   0  0  2  0  0  0  0  0  0  0  0  0
   -2.1434   -0.4125    0.0000 N   0  0  0  0  0  0  0  0  0  0  0  0
   -2.1434   -1.2375    0.0000 C   0  0  2  0  0  0  0  0  0  0  0  0
   -2.8579   -1.6500    0.0000 O   0  0  0  0  0  0  0  0  0  0  0  0
   -3.5724   -1.2375    0.0000 C   0  0  0  0  0  0  0  0  0  0  0  0
   -3.5724   -0.4125    0.0000 C   0  0  1  0  0  0  0  0  0  0  0  0
   -4.2868    0.0000    0.0000 C   0  0  0  0  0  0  0  0  0  0  0  0
   -4.2868   -1.6500    0.0000 C   0  0  2  0  0  0  0  0  0  0  0  0
   -4.8171   -2.2820    0.0000 O   0  0  0  0  0  0  0  0  0  0  0  0
   -5.0013   -1.2375    0.0000 C   0  0  2  0  0  0  0  0  0  0  0  0
   -5.0013   -0.4125    0.0000 O   0  0  0  0  0  0  0  0  0  0  0  0
   -5.7158   -0.0000    0.0000 C   0  0  0  0  0  0  0  0  0  0  0  0
   -6.4302   -0.4125    0.0000 O   0  0  0  0  0  0  0  0  0  0  0  0
   -5.7158    0.8250    0.0000 C   0  0  1  0  0  0  0  0  0  0  0  0
   -5.0013    1.2375    0.0000 C   0  0  1  0  0  0  0  0  0  0  0  0
   -5.7158    1.6500    0.0000 O   0  0  0  0  0  0  0  0  0  0  0  0
   -6.4302    1.2375    0.0000 C   0  0  2  0  0  0  0  0  0  0  0  0
   -6.4302    0.4125    0.0000 O   0  0  0  0  0  0  0  0  0  0  0  0
   -7.1447   -0.0000    0.0000 C   0  0  2  0  0  0  0  0  0  0  0  0
   -7.8592    0.4125    0.0000 C   0  0  2  0  0  0  0  0  0  0  0  0
   -8.5737   -0.0000    0.0000 O   0  0  0  0  0  0  0  0  0  0  0  0
   -7.8592    1.2375    0.0000 C   0  0  2  0  0  0  0  0  0  0  0  0
   -8.6716    1.0942    0.0000 O   0  0  0  0  0  0  0  0  0  0  0  0
   -9.2019    1.7262    0.0000 C   0  0  0  0  0  0  0  0  0  0  0  0
   -7.1447    1.6500    0.0000 C   0  0  0  0  0  0  0  0  0  0  0  0
   -8.1413    2.0127    0.0000 C   0  0  0  0  0  0  0  0  0  0  0  0
   -7.1447   -0.8250    0.0000 C   0  0  0  0  0  0  0  0  0  0  0  0
   -5.0013    2.0625    0.0000 C   0  0  1  0  0  0  0  0  0  0  0  0
   -4.2868    2.4750    0.0000 C   0  0  1  0  0  0  0  0  0  0  0  0
   -4.2868    3.3000    0.0000 O   0  0  0  0  0  0  0  0  0  0  0  0
   -5.0013    3.7125    0.0000 C   0  0  2  0  0  0  0  0  0  0  0  0
   -5.7158    3.3000    0.0000 O   0  0  0  0  0  0  0  0  0  0  0  0
   -6.4302    3.7125    0.0000 C   0  0  1  0  0  0  0  0  0  0  0  0
   -6.4302    4.5375    0.0000 C   0  0  0  0  0  0  0  0  0  0  0  0
   -5.7158    4.9500    0.0000 C   0  0  2  0  0  0  0  0  0  0  0  0
   -5.7158    5.7750    0.0000 N   0  0  0  0  0  0  0  0  0  0  0  0
   -5.0013    6.1875    0.0000 C   0  0  0  0  0  0  0  0  0  0  0  0
   -6.4302    6.1875    0.0000 C   0  0  0  0  0  0  0  0  0  0  0  0
   -5.0013    4.5375    0.0000 C   0  0  1  0  0  0  0  0  0  0  0  0
   -4.2868    4.9500    0.0000 O   0  0  0  0  0  0  0  0  0  0  0  0
   -7.1447    3.3000    0.0000 C   0  0  0  0  0  0  0  0  0  0  0  0
   -3.5724    2.0625    0.0000 C   0  0  2  0  0  0  0  0  0  0  0  0
   -3.2902    2.8377    0.0000 O   0  0  0  0  0  0  0  0  0  0  0  0
   -3.5724    1.2375    0.0000 C   0  0  0  0  0  0  0  0  0  0  0  0
   -2.8579    0.8250    0.0000 C   0  0  1  0  0  0  0  0  0  0  0  0
   -2.1434    1.2375    0.0000 C   0  0  0  0  0  0  0  0  0  0  0  0
   -2.7599    1.9192    0.0000 C   0  0  0  0  0  0  0  0  0  0  0  0
   -5.7158    2.4750    0.0000 C   0  0  0  0  0  0  0  0  0  0  0  0
   -6.5362    0.7388    0.0000 C   0  0  0  0  0  0  0  0  0  0  0  0
   -5.7158   -1.6500    0.0000 C   0  0  0  0  0  0  0  0  0  0  0  0
   -5.7158   -2.4750    0.0000 C   0  0  0  0  0  0  0  0  0  0  0  0
   -3.7565   -2.2820    0.0000 C   0  0  0  0  0  0  0  0  0  0  0  0
   -1.4289   -1.6500    0.0000 C   0  0  0  0  0  0  0  0  0  0  0  0
   -0.7145   -1.2375    0.0000 O   0  0  0  0  0  0  0  0  0  0  0  0
   -0.0000   -1.6500    0.0000 C   0  0  0  0  0  0  0  0  0  0  0  0
    0.7145   -1.2375    0.0000 C   0  0  0  0  0  0  0  0  0  0  0  0
    1.4289   -1.6500    0.0000 O   0  0  0  0  0  0  0  0  0  0  0  0
    2.1434   -1.2375    0.0000 C   0  0  0  0  0  0  0  0  0  0  0  0
  1  2  1  6  0  0  0
  2  3  1  0  0  0  0
  3  4  1  0  0  0  0
  4  5  1  0  0  0  0
  5  6  1  0  0  0  0
  1  6  1  0  0  0  0
  6  7  1  1  0  0  0
  5  8  1  0  0  0  0
  8  9  1  6  0  0  0
  8 10  1  0  0  0  0
 10 11  1  0  0  0  0
 11 12  1  0  0  0  0
 12 13  2  0  0  0  0
 12 14  1  0  0  0  0
 14 15  1  0  0  0  0
 15 16  1  6  0  0  0
 17 16  1  6  0  0  0
 17 18  1  0  0  0  0
 18 19  1  0  0  0  0
 19 20  1  0  0  0  0
 20 21  1  6  0  0  0
 20 22  1  0  0  0  0
 22 23  1  6  0  0  0
 23 24  1  0  0  0  0
 22 25  1  0  0  0  0
 17 25  1  0  0  0  0
 22 26  1  1  0  0  0
 19 27  1  1  0  0  0
 15 28  1  0  0  0  0
 28 29  1  0  0  0  0
 29 30  1  1  0  0  0
 31 30  1  6  0  0  0
 31 32  1  0  0  0  0
 32 33  1  0  0  0  0
 33 34  1  0  0  0  0
 34 35  1  0  0  0  0
 35 36  1  6  0  0  0
 36 37  1  0  0  0  0
 36 38  1  0  0  0  0
 35 39  1  0  0  0  0
 31 39  1  0  0  0  0
 39 40  1  1  0  0  0
 33 41  1  6  0  0  0
 29 42  1  0  0  0  0
 42 43  1  6  0  0  0
 42 44  1  0  0  0  0
 44 45  1  0  0  0  0
  1 45  1  0  0  0  0
 45 46  1  1  0  0  0
 42 47  1  1  0  0  0
 28 48  1  6  0  0  0
 14 49  1  6  0  0  0
 10 50  1  1  0  0  0
 50 51  1  0  0  0  0
  8 52  1  1  0  0  0
  3 53  1  1  0  0  0
 53 54  1  0  0  0  0
 54 55  1  0  0  0  0
 55 56  1  0  0  0  0
 56 57  1  0  0  0  0
 57 58  1  0  0  0  0
M  END
>  <Name>
Dirithromycin

>  <CAS>
62013-04-1

>  <Formula>
C42H78N2O14

>  <MolWt>
835.07 

>  <Bioactivity>
Dirithromycin is a macrolide glycopeptide antibiotic by binding to the 50S subunit of the 70S bacterial ribosome to inhibit the translocation of peptides.

>  <Pathways>
Microbiology & Virology

>  <Target>
Antibiotic

>  <Receptor>
50S/70S ribosomal protein

>  <Reference>
1. Moutard I, et al. Therapie, 1999, 54(5), 607-612.

$$$$
T1419
  Mrv1561503291623562D          

 54 54  0  0  1  0            999 V2000
    0.6439    0.3933    0.0000 C   0  0  2  0  0  0  0  0  0  0  0  0
    1.3583   -0.0192    0.0000 O   0  0  0  0  0  0  0  0  0  0  0  0
    1.3583   -0.8442    0.0000 C   0  0  2  0  0  0  0  0  0  0  0  0
    0.6439   -1.2567    0.0000 O   0  0  0  0  0  0  0  0  0  0  0  0
    0.6439   -2.0817    0.0000 C   0  0  1  0  0  0  0  0  0  0  0  0
    1.3583   -2.4942    0.0000 C   0  0  0  0  0  0  0  0  0  0  0  0
    2.0728   -2.0817    0.0000 C   0  0  2  0  0  0  0  0  0  0  0  0
    2.7873   -2.4942    0.0000 N   0  0  0  0  0  0  0  0  0  0  0  0
    2.7873   -3.3192    0.0000 C   0  0  0  0  0  0  0  0  0  0  0  0
    3.5017   -2.0817    0.0000 C   0  0  0  0  0  0  0  0  0  0  0  0
    2.0728   -1.2567    0.0000 C   0  0  1  0  0  0  0  0  0  0  0  0
    2.7873   -0.8442    0.0000 O   0  0  0  0  0  0  0  0  0  0  0  0
    0.3083   -2.8354    0.0000 C   0  0  0  0  0  0  0  0  0  0  0  0
    0.2534   -0.3335    0.0000 C   0  0  2  0  0  0  0  0  0  0  0  0
   -0.5584   -0.1868    0.0000 C   0  0  2  0  0  0  0  0  0  0  0  0
   -1.1543   -0.7573    0.0000 O   0  0  0  0  0  0  0  0  0  0  0  0
   -0.9581   -1.5587    0.0000 C   0  0  2  0  0  0  0  0  0  0  0  0
   -0.1661   -1.7895    0.0000 O   0  0  0  0  0  0  0  0  0  0  0  0
    0.0301   -2.5908    0.0000 C   0  0  2  0  0  0  0  0  0  0  0  0
   -0.5658   -3.1613    0.0000 C   0  0  2  0  0  0  0  0  0  0  0  0
   -0.3697   -3.9627    0.0000 O   0  0  0  0  0  0  0  0  0  0  0  0
   -1.3579   -2.9306    0.0000 C   0  0  2  0  0  0  0  0  0  0  0  0
   -2.1811   -2.9846    0.0000 O   0  0  0  0  0  0  0  0  0  0  0  0
   -2.5459   -3.7245    0.0000 C   0  0  0  0  0  0  0  0  0  0  0  0
   -1.5540   -2.1292    0.0000 C   0  0  0  0  0  0  0  0  0  0  0  0
   -1.4476   -3.7507    0.0000 C   0  0  0  0  0  0  0  0  0  0  0  0
    0.3089   -3.3672    0.0000 C   0  0  0  0  0  0  0  0  0  0  0  0
   -0.6697    0.6307    0.0000 C   0  0  2  0  0  0  0  0  0  0  0  0
   -1.3329    1.2433    0.0000 C   0  0  0  0  0  0  0  0  0  0  0  0
   -1.1861    2.0551    0.0000 O   0  0  0  0  0  0  0  0  0  0  0  0
   -1.8158    2.5881    0.0000 C   0  0  1  0  0  0  0  0  0  0  0  0
   -1.6691    3.4000    0.0000 C   0  0  1  0  0  0  0  0  0  0  0  0
   -1.8089    4.2131    0.0000 O   0  0  0  0  0  0  0  0  0  0  0  0
   -0.8927    3.6788    0.0000 C   0  0  2  0  0  0  0  0  0  0  0  0
   -0.7459    4.4907    0.0000 O   0  0  0  0  0  0  0  0  0  0  0  0
   -0.2630    3.1459    0.0000 C   0  0  2  0  0  0  0  0  0  0  0  0
    0.5135    3.4247    0.0000 N   0  0  0  0  0  0  0  0  0  0  0  0
    1.1432    2.8917    0.0000 C   0  0  0  0  0  0  0  0  0  0  0  0
    0.9965    2.0799    0.0000 C   0  0  1  0  0  0  0  0  0  0  0  0
    1.6262    1.5469    0.0000 C   0  0  0  0  0  0  0  0  0  0  0  0
    1.4795    0.7350    0.0000 C   0  0  1  0  0  0  0  0  0  0  0  0
    2.2885    0.5735    0.0000 O   0  0  0  0  0  0  0  0  0  0  0  0
    1.8057   -0.0228    0.0000 C   0  0  0  0  0  0  0  0  0  0  0  0
    0.2200    1.8010    0.0000 C   0  0  0  0  0  0  0  0  0  0  0  0
    0.6602    4.2366    0.0000 C   0  0  0  0  0  0  0  0  0  0  0  0
   -0.4097    2.3340    0.0000 C   0  0  0  0  0  0  0  0  0  0  0  0
   -2.4941    3.4035    0.0000 C   0  0  0  0  0  0  0  0  0  0  0  0
   -2.5923    2.3093    0.0000 C   0  0  0  0  0  0  0  0  0  0  0  0
   -3.2220    2.8423    0.0000 C   0  0  0  0  0  0  0  0  0  0  0  0
   -2.1152    0.9814    0.0000 O   0  0  0  0  0  0  0  0  0  0  0  0
    0.0620    1.0118    0.0000 C   0  0  0  0  0  0  0  0  0  0  0  0
    0.3648   -1.1510    0.0000 C   0  0  0  0  0  0  0  0  0  0  0  0
    5.8589    0.0000    0.0000 O   0  0  0  0  0  0  0  0  0  0  0  0
    0.0000   -5.6127    0.0000 O   0  0  0  0  0  0  0  0  0  0  0  0
  1  2  1  1  0  0  0
  3  2  1  1  0  0  0
  3  4  1  0  0  0  0
  4  5  1  0  0  0  0
  5  6  1  0  0  0  0
  6  7  1  0  0  0  0
  7  8  1  1  0  0  0
  8  9  1  0  0  0  0
  8 10  1  0  0  0  0
  7 11  1  0  0  0  0
  3 11  1  0  0  0  0
 11 12  1  6  0  0  0
  5 13  1  1  0  0  0
  1 14  1  0  0  0  0
 14 15  1  0  0  0  0
 15 16  1  6  0  0  0
 17 16  1  6  0  0  0
 17 18  1  0  0  0  0
 18 19  1  0  0  0  0
 19 20  1  0  0  0  0
 20 21  1  6  0  0  0
 20 22  1  0  0  0  0
 22 23  1  6  0  0  0
 23 24  1  0  0  0  0
 22 25  1  0  0  0  0
 17 25  1  0  0  0  0
 22 26  1  1  0  0  0
 19 27  1  1  0  0  0
 15 28  1  0  0  0  0
 28 29  1  0  0  0  0
 29 30  1  0  0  0  0
 30 31  1  0  0  0  0
 31 32  1  0  0  0  0
 32 33  1  1  0  0  0
 32 34  1  0  0  0  0
 34 35  1  6  0  0  0
 34 36  1  0  0  0  0
 36 37  1  0  0  0  0
 37 38  1  0  0  0  0
 38 39  1  0  0  0  0
 39 40  1  0  0  0  0
 40 41  1  0  0  0  0
  1 41  1  0  0  0  0
 41 42  1  1  0  0  0
 41 43  1  6  0  0  0
 39 44  1  1  0  0  0
 37 45  1  0  0  0  0
 36 46  1  6  0  0  0
 32 47  1  6  0  0  0
 31 48  1  6  0  0  0
 48 49  1  0  0  0  0
 29 50  2  0  0  0  0
 28 51  1  6  0  0  0
 14 52  1  1  0  0  0
M  END
>  <Name>
Azithromycin dihydrate

>  <CAS>
117772-70-0

>  <Formula>
C38H72N2O12.2H2O

>  <MolWt>
749.00 

>  <Bioactivity>
Azithromycin Dihydrate is an acid stable orally administered macrolide antimicrobial drug, structurally related to erythromycin

>  <Pathways>
Microbiology & Virology

>  <Target>
Antibiotic 

>  <Receptor>
23S rRNA;50S ribosomal protein

>  <Reference>
1. Peters DH, et al. Drugs, 1992, 44(5), 750-799.

$$$$
90357-06-5
  Mrv1561503291623562D          

 29 30  0  0  0  0            999 V2000
   -1.4289   -4.1250    0.0000 C   0  0  0  0  0  0  0  0  0  0  0  0
   -1.4289   -4.9500    0.0000 C   0  0  0  0  0  0  0  0  0  0  0  0
   -2.1434   -5.3625    0.0000 C   0  0  0  0  0  0  0  0  0  0  0  0
   -2.8579   -4.9500    0.0000 C   0  0  0  0  0  0  0  0  0  0  0  0
   -2.8579   -4.1250    0.0000 C   0  0  0  0  0  0  0  0  0  0  0  0
   -2.1434   -3.7125    0.0000 C   0  0  0  0  0  0  0  0  0  0  0  0
   -2.1434   -2.8875    0.0000 N   0  0  0  0  0  0  0  0  0  0  0  0
   -2.8579   -2.4750    0.0000 C   0  0  0  0  0  0  0  0  0  0  0  0
   -2.8579   -1.6500    0.0000 C   0  0  0  0  0  0  0  0  0  0  0  0
   -2.8579   -0.8250    0.0000 C   0  0  0  0  0  0  0  0  0  0  0  0
   -3.5724   -0.4125    0.0000 S   0  0  0  0  0  0  0  0  0  0  0  0
   -4.2868    0.0000    0.0000 C   0  0  0  0  0  0  0  0  0  0  0  0
   -5.0013   -0.4125    0.0000 C   0  0  0  0  0  0  0  0  0  0  0  0
   -5.7158    0.0000    0.0000 C   0  0  0  0  0  0  0  0  0  0  0  0
   -5.7158    0.8250    0.0000 C   0  0  0  0  0  0  0  0  0  0  0  0
   -6.4302    1.2375    0.0000 F   0  0  0  0  0  0  0  0  0  0  0  0
   -5.0013    1.2375    0.0000 C   0  0  0  0  0  0  0  0  0  0  0  0
   -4.2868    0.8250    0.0000 C   0  0  0  0  0  0  0  0  0  0  0  0
   -3.9849   -1.1270    0.0000 O   0  0  0  0  0  0  0  0  0  0  0  0
   -3.1599    0.3020    0.0000 O   0  0  0  0  0  0  0  0  0  0  0  0
   -3.6829   -1.6500    0.0000 C   0  0  0  0  0  0  0  0  0  0  0  0
   -2.0329   -1.6500    0.0000 O   0  0  0  0  0  0  0  0  0  0  0  0
   -3.5724   -2.8875    0.0000 O   0  0  0  0  0  0  0  0  0  0  0  0
   -2.1434   -6.1875    0.0000 C   0  0  0  0  0  0  0  0  0  0  0  0
   -2.1434   -7.0125    0.0000 N   0  0  0  0  0  0  0  0  0  0  0  0
   -0.7145   -5.3625    0.0000 C   0  0  0  0  0  0  0  0  0  0  0  0
   -0.0000   -5.7750    0.0000 F   0  0  0  0  0  0  0  0  0  0  0  0
   -1.1270   -6.0770    0.0000 F   0  0  0  0  0  0  0  0  0  0  0  0
   -0.3020   -4.6480    0.0000 F   0  0  0  0  0  0  0  0  0  0  0  0
  1  2  2  0  0  0  0
  2  3  1  0  0  0  0
  3  4  2  0  0  0  0
  4  5  1  0  0  0  0
  5  6  2  0  0  0  0
  1  6  1  0  0  0  0
  6  7  1  0  0  0  0
  7  8  1  0  0  0  0
  8  9  1  0  0  0  0
  9 10  1  0  0  0  0
 10 11  1  0  0  0  0
 11 12  1  0  0  0  0
 12 13  2  0  0  0  0
 13 14  1  0  0  0  0
 14 15  2  0  0  0  0
 15 16  1  0  0  0  0
 15 17  1  0  0  0  0
 17 18  2  0  0  0  0
 12 18  1  0  0  0  0
 11 19  2  0  0  0  0
 11 20  2  0  0  0  0
  9 21  1  0  0  0  0
  9 22  1  0  0  0  0
  8 23  2  0  0  0  0
  3 24  1  0  0  0  0
 24 25  3  0  0  0  0
  2 26  1  0  0  0  0
 26 27  1  0  0  0  0
 26 28  1  0  0  0  0
 26 29  1  0  0  0  0
M  END
>  <Name>
Bicalutamide

>  <CAS>
90357-06-5

>  <Formula>
C18H14F4N2O4S

>  <MolWt>
430.37 

>  <Bioactivity>
Bicalutamide is an oral non-steroidal anti-androgen for prostate cancer. It binds to the androgen receptor.

>  <Pathways>
Endocrinology/ Hormones

>  <Target>
Androgen Receptor antagonist

>  <Receptor>
Androgen Receptor

>  <Reference>
1. Wang LG, et al. Biochem Pharmacol. 1998 May 1; 55(9):1427-33.

$$$$
50-55-5
  Mrv1561503291623562D          

 44 49  0  0  1  0            999 V2000
    2.8740    0.0949    0.0000 C   0  0  2  0  0  0  0  0  0  0  0  0
    3.6845    0.2486    0.0000 C   0  0  0  0  0  0  0  0  0  0  0  0
    4.2229   -0.3765    0.0000 C   0  0  0  0  0  0  0  0  0  0  0  0
    4.9838   -0.0576    0.0000 C   0  0  0  0  0  0  0  0  0  0  0  0
    4.9157    0.7646    0.0000 C   0  0  0  0  0  0  0  0  0  0  0  0
    4.1127    0.9538    0.0000 N   0  0  0  0  0  0  0  0  0  0  0  0
    5.5936    1.2347    0.0000 C   0  0  0  0  0  0  0  0  0  0  0  0
    6.3397    0.8826    0.0000 C   0  0  0  0  0  0  0  0  0  0  0  0
    7.0177    1.3527    0.0000 O   0  0  0  0  0  0  0  0  0  0  0  0
    7.7638    1.0007    0.0000 C   0  0  0  0  0  0  0  0  0  0  0  0
    6.4079    0.0604    0.0000 C   0  0  0  0  0  0  0  0  0  0  0  0
    5.7299   -0.4097    0.0000 C   0  0  0  0  0  0  0  0  0  0  0  0
    3.9508   -1.1553    0.0000 C   0  0  0  0  0  0  0  0  0  0  0  0
    3.1402   -1.3091    0.0000 C   0  0  0  0  0  0  0  0  0  0  0  0
    2.6018   -0.6840    0.0000 N   0  0  0  0  0  0  0  0  0  0  0  0
    1.7913   -0.8377    0.0000 C   0  0  0  0  0  0  0  0  0  0  0  0
    1.2529   -0.2126    0.0000 C   0  0  1  0  0  0  0  0  0  0  0  0
    0.4423   -0.3663    0.0000 C   0  0  0  0  0  0  0  0  0  0  0  0
   -0.0961    0.2588    0.0000 C   0  0  1  0  0  0  0  0  0  0  0  0
   -0.9066    0.1050    0.0000 O   0  0  0  0  0  0  0  0  0  0  0  0
   -1.1788   -0.6738    0.0000 C   0  0  0  0  0  0  0  0  0  0  0  0
   -1.9893   -0.8275    0.0000 C   0  0  0  0  0  0  0  0  0  0  0  0
   -2.2615   -1.6063    0.0000 C   0  0  0  0  0  0  0  0  0  0  0  0
   -3.0720   -1.7601    0.0000 C   0  0  0  0  0  0  0  0  0  0  0  0
   -3.6104   -1.1350    0.0000 C   0  0  0  0  0  0  0  0  0  0  0  0
   -3.3383   -0.3561    0.0000 C   0  0  0  0  0  0  0  0  0  0  0  0
   -2.5277   -0.2024    0.0000 C   0  0  0  0  0  0  0  0  0  0  0  0
   -3.8767    0.2690    0.0000 O   0  0  0  0  0  0  0  0  0  0  0  0
   -3.6045    1.0478    0.0000 C   0  0  0  0  0  0  0  0  0  0  0  0
   -4.4210   -1.2887    0.0000 O   0  0  0  0  0  0  0  0  0  0  0  0
   -4.6931   -2.0675    0.0000 C   0  0  0  0  0  0  0  0  0  0  0  0
   -3.3442   -2.5389    0.0000 O   0  0  0  0  0  0  0  0  0  0  0  0
   -4.1547   -2.6926    0.0000 C   0  0  0  0  0  0  0  0  0  0  0  0
   -0.6404   -1.2989    0.0000 O   0  0  0  0  0  0  0  0  0  0  0  0
    0.1761    1.0376    0.0000 C   0  0  1  0  0  0  0  0  0  0  0  0
    0.9866    1.1913    0.0000 C   0  0  2  0  0  0  0  0  0  0  0  0
    1.5250    0.5662    0.0000 C   0  0  1  0  0  0  0  0  0  0  0  0
    2.3356    0.7200    0.0000 C   0  0  0  0  0  0  0  0  0  0  0  0
    1.2588    1.9701    0.0000 C   0  0  0  0  0  0  0  0  0  0  0  0
    0.7204    2.5952    0.0000 O   0  0  0  0  0  0  0  0  0  0  0  0
    0.9925    3.3741    0.0000 C   0  0  0  0  0  0  0  0  0  0  0  0
    2.0693    2.1239    0.0000 O   0  0  0  0  0  0  0  0  0  0  0  0
   -0.3623    1.6627    0.0000 O   0  0  0  0  0  0  0  0  0  0  0  0
   -0.0902    2.4415    0.0000 C   0  0  0  0  0  0  0  0  0  0  0  0
  1  2  1  6  0  0  0
  2  3  2  0  0  0  0
  3  4  1  0  0  0  0
  4  5  2  0  0  0  0
  5  6  1  0  0  0  0
  2  6  1  0  0  0  0
  5  7  1  0  0  0  0
  7  8  2  0  0  0  0
  8  9  1  0  0  0  0
  9 10  1  0  0  0  0
  8 11  1  0  0  0  0
 11 12  2  0  0  0  0
  4 12  1  0  0  0  0
  3 13  1  0  0  0  0
 13 14  1  0  0  0  0
 14 15  1  0  0  0  0
  1 15  1  0  0  0  0
 15 16  1  0  0  0  0
 16 17  1  0  0  0  0
 17 18  1  1  0  0  0
 18 19  1  0  0  0  0
 19 20  1  1  0  0  0
 20 21  1  0  0  0  0
 21 22  1  0  0  0  0
 22 23  2  0  0  0  0
 23 24  1  0  0  0  0
 24 25  2  0  0  0  0
 25 26  1  0  0  0  0
 26 27  2  0  0  0  0
 22 27  1  0  0  0  0
 26 28  1  0  0  0  0
 28 29  1  0  0  0  0
 25 30  1  0  0  0  0
 30 31  1  0  0  0  0
 24 32  1  0  0  0  0
 32 33  1  0  0  0  0
 21 34  2  0  0  0  0
 19 35  1  0  0  0  0
 35 36  1  0  0  0  0
 36 37  1  0  0  0  0
 17 37  1  0  0  0  0
 37 38  1  1  0  0  0
  1 38  1  0  0  0  0
 36 39  1  1  0  0  0
 39 40  1  0  0  0  0
 40 41  1  0  0  0  0
 39 42  2  0  0  0  0
 35 43  1  6  0  0  0
 43 44  1  0  0  0  0
M  END
>  <Name>
Reserpine

>  <CAS>
50-55-5

>  <Formula>
C33H40N2O9

>  <MolWt>
608.68 

>  <Bioactivity>
An alkaloid found in the roots of Rauwolfia serpentina and R. vomitoria. Reserpine inhibits the uptake of norepinephrine into storage vesicles resulting in depletion of catecholamines and serotonin from central and peripheral axon terminals. It has been used as an antihypertensive and an antipsychotic as well as a research tool, but its adverse effects limit its clinical use. 

>  <Pathways>
Metabolism

>  <Target>
Billiation inhibitor

>  <Receptor>
SVAT;Bile salt export pump;MRP1

>  <Reference>
1. Sievert MK, et al. Anal Biochem. 2007 Aug 1;367(1):68-78.

$$$$
T1104
  Mrv1561503291623562D          

 47 49  0  0  1  0            999 V2000
    0.3676    1.7644    0.0000 C   0  0  1  0  0  0  0  0  0  0  0  0
    0.3676    2.5894    0.0000 O   0  0  0  0  0  0  0  0  0  0  0  0
    1.0820    3.0019    0.0000 C   0  0  1  0  0  0  0  0  0  0  0  0
    1.7965    2.5894    0.0000 O   0  0  0  0  0  0  0  0  0  0  0  0
    2.5110    3.0019    0.0000 C   0  0  2  0  0  0  0  0  0  0  0  0
    2.5110    3.8269    0.0000 C   0  0  1  0  0  0  0  0  0  0  0  0
    3.2254    4.2394    0.0000 O   0  0  0  0  0  0  0  0  0  0  0  0
    1.7965    4.2394    0.0000 C   0  0  2  0  0  0  0  0  0  0  0  0
    1.7965    5.0644    0.0000 O   0  0  0  0  0  0  0  0  0  0  0  0
    1.0820    3.8269    0.0000 C   0  0  1  0  0  0  0  0  0  0  0  0
    0.3676    4.2394    0.0000 N   0  0  0  0  0  0  0  0  0  0  0  0
    3.2254    2.5894    0.0000 C   0  0  0  0  0  0  0  0  0  0  0  0
    3.9399    3.0019    0.0000 N   0  0  0  0  0  0  0  0  0  0  0  0
   -0.2999    1.2795    0.0000 C   0  0  1  0  0  0  0  0  0  0  0  0
   -1.0845    1.5344    0.0000 O   0  0  0  0  0  0  0  0  0  0  0  0
   -0.0449    0.4949    0.0000 C   0  0  0  0  0  0  0  0  0  0  0  0
   -0.5299   -0.1726    0.0000 O   0  0  0  0  0  0  0  0  0  0  0  0
   -0.1943   -0.9263    0.0000 C   0  0  1  0  0  0  0  0  0  0  0  0
   -0.6792   -1.5937    0.0000 C   0  0  0  0  0  0  0  0  0  0  0  0
   -1.4997   -1.5075    0.0000 O   0  0  0  0  0  0  0  0  0  0  0  0
   -1.9846   -2.1749    0.0000 C   0  0  1  0  0  0  0  0  0  0  0  0
   -1.6491   -2.9286    0.0000 O   0  0  0  0  0  0  0  0  0  0  0  0
   -2.1340   -3.5960    0.0000 C   0  0  1  0  0  0  0  0  0  0  0  0
   -2.9545   -3.5098    0.0000 C   0  0  1  0  0  0  0  0  0  0  0  0
   -3.4394   -4.1772    0.0000 O   0  0  0  0  0  0  0  0  0  0  0  0
   -3.2900   -2.7561    0.0000 C   0  0  2  0  0  0  0  0  0  0  0  0
   -4.1105   -2.6699    0.0000 O   0  0  0  0  0  0  0  0  0  0  0  0
   -2.8051   -2.0887    0.0000 C   0  0  1  0  0  0  0  0  0  0  0  0
   -3.1407   -1.3350    0.0000 N   0  0  0  0  0  0  0  0  0  0  0  0
   -1.7984   -4.3497    0.0000 C   0  0  0  0  0  0  0  0  0  0  0  0
   -2.2834   -5.0171    0.0000 O   0  0  0  0  0  0  0  0  0  0  0  0
   -0.3437   -2.3474    0.0000 C   0  0  1  0  0  0  0  0  0  0  0  0
   -0.8286   -3.0148    0.0000 N   0  0  0  0  0  0  0  0  0  0  0  0
    0.4768   -2.4336    0.0000 C   0  0  0  0  0  0  0  0  0  0  0  0
    0.9617   -1.7662    0.0000 C   0  0  1  0  0  0  0  0  0  0  0  0
    1.7822   -1.8524    0.0000 N   0  0  0  0  0  0  0  0  0  0  0  0
    0.6262   -1.0125    0.0000 C   0  0  2  0  0  0  0  0  0  0  0  0
    1.1111   -0.3450    0.0000 O   0  0  0  0  0  0  0  0  0  0  0  0
    0.7801    0.4949    0.0000 O   0  0  0  0  0  0  0  0  0  0  0  0
    1.0350    1.2795    0.0000 C   0  0  2  0  0  0  0  0  0  0  0  0
    1.8196    1.5344    0.0000 C   0  0  0  0  0  0  0  0  0  0  0  0
    2.4327    0.9824    0.0000 O   0  0  0  0  0  0  0  0  0  0  0  0
    6.6506   -0.8250    0.0000 O   0  0  0  0  0  0  0  0  0  0  0  0
    6.6506    0.0000    0.0000 S   0  0  0  0  0  0  0  0  0  0  0  0
    6.6506    0.8250    0.0000 O   0  0  0  0  0  0  0  0  0  0  0  0
    7.4756   -0.0000    0.0000 O   0  0  0  0  0  0  0  0  0  0  0  0
    5.8256    0.0000    0.0000 O   0  0  0  0  0  0  0  0  0  0  0  0
  1  2  1  6  0  0  0
  3  2  1  6  0  0  0
  3  4  1  0  0  0  0
  4  5  1  0  0  0  0
  5  6  1  0  0  0  0
  6  7  1  6  0  0  0
  6  8  1  0  0  0  0
  8  9  1  1  0  0  0
  8 10  1  0  0  0  0
  3 10  1  0  0  0  0
 10 11  1  6  0  0  0
  5 12  1  6  0  0  0
 12 13  1  0  0  0  0
  1 14  1  0  0  0  0
 14 15  1  6  0  0  0
 14 16  1  0  0  0  0
 16 17  1  0  0  0  0
 18 17  1  6  0  0  0
 18 19  1  0  0  0  0
 19 20  1  0  0  0  0
 21 20  1  1  0  0  0
 21 22  1  0  0  0  0
 22 23  1  0  0  0  0
 23 24  1  0  0  0  0
 24 25  1  1  0  0  0
 24 26  1  0  0  0  0
 26 27  1  6  0  0  0
 26 28  1  0  0  0  0
 21 28  1  0  0  0  0
 28 29  1  1  0  0  0
 23 30  1  6  0  0  0
 30 31  1  0  0  0  0
 19 32  1  0  0  0  0
 32 33  1  6  0  0  0
 32 34  1  0  0  0  0
 34 35  1  0  0  0  0
 35 36  1  6  0  0  0
 35 37  1  0  0  0  0
 18 37  1  0  0  0  0
 37 38  1  1  0  0  0
 16 39  1  0  0  0  0
 39 40  1  0  0  0  0
  1 40  1  0  0  0  0
 40 41  1  1  0  0  0
 41 42  1  0  0  0  0
 43 44  2  0  0  0  0
 44 45  2  0  0  0  0
 44 46  1  0  0  0  0
 44 47  1  0  0  0  0
M  END
>  <Name>
Paromomycin Sulfate

>  <CAS>
1263-89-4

>  <Formula>
C23H47N5O18S

>  <MolWt>
713.71 

>  <Bioactivity>
Paromomycin Sulfate is an aminoglycoside antibiotics inhibiting protein synthesis in non-resistant cells by binding to 16S ribosomal RNA.

>  <Pathways>
Microbiology & Virology

>  <Target>
Antibiotic

>  <Receptor>
16S rRNA

>  <Reference>
1. Davidson RN, et al. ParomomycinTrans R Soc Trop Med Hyg, 2009, 103(7), 653-660.

$$$$
33286-22-5
  Mrv1561503291623562D          

 31 31  0  0  1  0            999 V2000
    0.1745   -0.6870    0.0000 C   0  0  0  0  0  0  0  0  0  0  0  0
   -0.6298   -0.8706    0.0000 S   0  0  0  0  0  0  0  0  0  0  0  0
   -1.2748   -0.3562    0.0000 C   0  0  0  0  0  0  0  0  0  0  0  0
   -1.2748    0.4688    0.0000 C   0  0  0  0  0  0  0  0  0  0  0  0
   -0.6298    0.9831    0.0000 N   0  0  0  0  0  0  0  0  0  0  0  0
    0.1745    0.7996    0.0000 C   0  0  0  0  0  0  0  0  0  0  0  0
    0.6889    1.4446    0.0000 O   0  0  0  0  0  0  0  0  0  0  0  0
    0.5325    0.0563    0.0000 C   0  0  0  0  0  0  0  0  0  0  0  0
    1.3575    0.0563    0.0000 O   0  0  0  0  0  0  0  0  0  0  0  0
    1.7700    0.7707    0.0000 C   0  0  0  0  0  0  0  0  0  0  0  0
    1.3575    1.4852    0.0000 O   0  0  0  0  0  0  0  0  0  0  0  0
    2.5950    0.7707    0.0000 C   0  0  0  0  0  0  0  0  0  0  0  0
   -0.8134    1.7875    0.0000 C   0  0  0  0  0  0  0  0  0  0  0  0
   -1.6017    2.0306    0.0000 C   0  0  0  0  0  0  0  0  0  0  0  0
   -1.7853    2.8349    0.0000 N   0  0  0  0  0  0  0  0  0  0  0  0
   -2.5737    3.0781    0.0000 C   0  0  0  0  0  0  0  0  0  0  0  0
   -1.1805    3.3961    0.0000 C   0  0  0  0  0  0  0  0  0  0  0  0
   -1.9893    0.8813    0.0000 C   0  0  0  0  0  0  0  0  0  0  0  0
   -2.7037    0.4688    0.0000 C   0  0  0  0  0  0  0  0  0  0  0  0
   -2.7037   -0.3562    0.0000 C   0  0  0  0  0  0  0  0  0  0  0  0
   -1.9893   -0.7687    0.0000 C   0  0  0  0  0  0  0  0  0  0  0  0
    0.6889   -1.3321    0.0000 C   0  0  0  0  0  0  0  0  0  0  0  0
    1.5047   -1.2091    0.0000 C   0  0  0  0  0  0  0  0  0  0  0  0
    2.0191   -1.8541    0.0000 C   0  0  0  0  0  0  0  0  0  0  0  0
    1.7177   -2.6221    0.0000 C   0  0  0  0  0  0  0  0  0  0  0  0
    2.2320   -3.2671    0.0000 O   0  0  0  0  0  0  0  0  0  0  0  0
    3.0478   -3.1441    0.0000 C   0  0  0  0  0  0  0  0  0  0  0  0
    0.9019   -2.7450    0.0000 C   0  0  0  0  0  0  0  0  0  0  0  0
    0.3875   -2.1000    0.0000 C   0  0  0  0  0  0  0  0  0  0  0  0
    6.2300    0.0000    0.0000 H   0  3  0  0  0  0  0  0  0  0  0  0
    5.4050    0.0000    0.0000 Cl  0  5  0  0  0  0  0  0  0  0  0  0
  1  2  1  0  0  0  0
  2  3  1  0  0  0  0
  3  4  2  0  0  0  0
  4  5  1  0  0  0  0
  5  6  1  0  0  0  0
  6  7  2  0  0  0  0
  6  8  1  0  0  0  0
  1  8  1  0  0  0  0
  8  9  1  0  0  0  0
  9 10  1  0  0  0  0
 10 11  2  0  0  0  0
 10 12  1  0  0  0  0
  5 13  1  0  0  0  0
 13 14  1  0  0  0  0
 14 15  1  0  0  0  0
 15 16  1  0  0  0  0
 15 17  1  0  0  0  0
  4 18  1  0  0  0  0
 18 19  2  0  0  0  0
 19 20  1  0  0  0  0
 20 21  2  0  0  0  0
  3 21  1  0  0  0  0
  1 22  1  0  0  0  0
 22 23  2  0  0  0  0
 23 24  1  0  0  0  0
 24 25  2  0  0  0  0
 25 26  1  0  0  0  0
 26 27  1  0  0  0  0
 25 28  1  0  0  0  0
 28 29  2  0  0  0  0
 22 29  1  0  0  0  0
M  CHG  2  30   1  31  -1
M  END
>  <Name>
Diltiazem HCl

>  <CAS>
33286-22-5

>  <Formula>
C22H27ClN2O4S

>  <MolWt>
450.98 

>  <Bioactivity>
A benzothiazepine derivative with vasodilating action due to its antagonism of the actions of CALCIUM ion on membrane functions.

>  <Pathways>
Membrane Transporter/Ion Channel

>  <Target>
Calcium Channel inhibitor

>  <Receptor>
Calcium Channel

>  <Reference>
1. Budriesi R, et al. Mini Rev Med Chem. 2009 Oct; 9(12):1379-88. 

$$$$
T0292
  Mrv1561503291623562D          

 28 31  0  0  1  0            999 V2000
   -2.8579   -1.6500    0.0000 C   0  0  2  0  0  0  0  0  0  0  0  0
   -2.1434   -1.2375    0.0000 C   0  0  0  0  0  0  0  0  0  0  0  0
   -1.4289   -1.6500    0.0000 N   0  0  0  0  0  0  0  0  0  0  0  0
   -0.7145   -1.2375    0.0000 C   0  0  0  0  0  0  0  0  0  0  0  0
   -0.0000   -1.6500    0.0000 C   0  0  0  0  0  0  0  0  0  0  0  0
    0.7145   -1.2375    0.0000 C   0  0  0  0  0  0  0  0  0  0  0  0
    0.7145   -0.4125    0.0000 C   0  0  0  0  0  0  0  0  0  0  0  0
    1.4289    0.0000    0.0000 C   0  0  0  0  0  0  0  0  0  0  0  0
    2.1434   -0.4125    0.0000 C   0  0  0  0  0  0  0  0  0  0  0  0
    2.1434   -1.2375    0.0000 C   0  0  0  0  0  0  0  0  0  0  0  0
    1.4289   -1.6500    0.0000 N   0  0  0  0  0  0  0  0  0  0  0  0
    1.4289   -2.4750    0.0000 C   0  0  0  0  0  0  0  0  0  0  0  0
    1.8414   -3.1895    0.0000 C   0  0  0  0  0  0  0  0  0  0  0  0
    1.0164   -3.1895    0.0000 C   0  0  0  0  0  0  0  0  0  0  0  0
    2.8579    0.0000    0.0000 C   0  0  0  0  0  0  0  0  0  0  0  0
    3.5724   -0.4125    0.0000 O   0  0  0  0  0  0  0  0  0  0  0  0
    2.8579    0.8250    0.0000 O   0  0  0  0  0  0  0  0  0  0  0  0
    1.4289    0.8250    0.0000 O   0  0  0  0  0  0  0  0  0  0  0  0
   -0.0000    0.0000    0.0000 C   0  0  0  0  0  0  0  0  0  0  0  0
   -0.7145   -0.4125    0.0000 C   0  0  0  0  0  0  0  0  0  0  0  0
   -1.4289   -0.0000    0.0000 F   0  0  0  0  0  0  0  0  0  0  0  0
   -0.0000    0.8250    0.0000 F   0  0  0  0  0  0  0  0  0  0  0  0
   -0.0000   -2.4750    0.0000 F   0  0  0  0  0  0  0  0  0  0  0  0
   -1.4289   -2.4750    0.0000 C   0  0  0  0  0  0  0  0  0  0  0  0
   -2.1434   -2.8875    0.0000 C   0  0  2  0  0  0  0  0  0  0  0  0
   -2.1434   -3.7125    0.0000 C   0  0  0  0  0  0  0  0  0  0  0  0
   -2.8579   -2.4750    0.0000 N   0  0  0  0  0  0  0  0  0  0  0  0
   -3.5724   -1.2375    0.0000 C   0  0  0  0  0  0  0  0  0  0  0  0
  1  2  1  0  0  0  0
  2  3  1  0  0  0  0
  3  4  1  0  0  0  0
  4  5  2  0  0  0  0
  5  6  1  0  0  0  0
  6  7  2  0  0  0  0
  7  8  1  0  0  0  0
  8  9  1  0  0  0  0
  9 10  2  0  0  0  0
 10 11  1  0  0  0  0
  6 11  1  0  0  0  0
 11 12  1  0  0  0  0
 12 13  1  0  0  0  0
 13 14  1  0  0  0  0
 12 14  1  0  0  0  0
  9 15  1  0  0  0  0
 15 16  1  0  0  0  0
 15 17  2  0  0  0  0
  8 18  2  0  0  0  0
  7 19  1  0  0  0  0
 19 20  2  0  0  0  0
  4 20  1  0  0  0  0
 20 21  1  0  0  0  0
 19 22  1  0  0  0  0
  5 23  1  0  0  0  0
  3 24  1  0  0  0  0
 24 25  1  0  0  0  0
 25 26  1  6  0  0  0
 25 27  1  0  0  0  0
  1 27  1  0  0  0  0
  1 28  1  6  0  0  0
M  END
>  <Name>
Orbifloxacin

>  <CAS>
113617-63-3

>  <Formula>
C19H20F3N3O3

>  <MolWt>
395.38 

>  <Bioactivity>
Orbifloxacin is a synthetic broad-spectrum fluoroquinolone antibiotic.

>  <Pathways>
Microbiology & Virology

>  <Target>
Antibiotic

>  <Receptor>
Others

>  <Reference>
1. Ganière JP, et al. Res Vet Sci. 2004 Aug; 77(1):67-71.

$$$$
15826-37-6
  Mrv1561503291623562D          

 36 37  0  0  0  0            999 V2000
   -6.4302   -1.2375    0.0000 C   0  0  0  0  0  0  0  0  0  0  0  0
   -5.7158   -1.6500    0.0000 C   0  0  0  0  0  0  0  0  0  0  0  0
   -5.0013   -1.2375    0.0000 C   0  0  0  0  0  0  0  0  0  0  0  0
   -5.0013   -0.4125    0.0000 C   0  0  0  0  0  0  0  0  0  0  0  0
   -5.7158    0.0000    0.0000 C   0  0  0  0  0  0  0  0  0  0  0  0
   -6.4302   -0.4125    0.0000 C   0  0  0  0  0  0  0  0  0  0  0  0
   -7.1447    0.0000    0.0000 O   0  0  0  0  0  0  0  0  0  0  0  0
   -7.1447    0.8250    0.0000 C   0  0  0  0  0  0  0  0  0  0  0  0
   -6.4302    1.2375    0.0000 C   0  0  0  0  0  0  0  0  0  0  0  0
   -5.7158    0.8250    0.0000 C   0  0  0  0  0  0  0  0  0  0  0  0
   -5.0013    1.2375    0.0000 O   0  0  0  0  0  0  0  0  0  0  0  0
   -7.8592    1.2375    0.0000 C   0  0  0  0  0  0  0  0  0  0  0  0
   -8.5737    0.8250    0.0000 O   0  0  0  0  0  0  0  0  0  0  0  0
   -7.8592    2.0625    0.0000 O   0  5  0  0  0  0  0  0  0  0  0  0
   -4.2868    0.0000    0.0000 O   0  0  0  0  0  0  0  0  0  0  0  0
   -3.5724   -0.4125    0.0000 C   0  0  0  0  0  0  0  0  0  0  0  0
   -2.8579    0.0000    0.0000 C   0  0  0  0  0  0  0  0  0  0  0  0
   -2.1434   -0.4125    0.0000 C   0  0  0  0  0  0  0  0  0  0  0  0
   -1.4289    0.0000    0.0000 O   0  0  0  0  0  0  0  0  0  0  0  0
   -0.7145   -0.4125    0.0000 C   0  0  0  0  0  0  0  0  0  0  0  0
   -0.7145   -1.2375    0.0000 C   0  0  0  0  0  0  0  0  0  0  0  0
   -0.0000   -1.6500    0.0000 C   0  0  0  0  0  0  0  0  0  0  0  0
    0.7145   -1.2375    0.0000 C   0  0  0  0  0  0  0  0  0  0  0  0
    0.7145   -0.4125    0.0000 C   0  0  0  0  0  0  0  0  0  0  0  0
   -0.0000    0.0000    0.0000 C   0  0  0  0  0  0  0  0  0  0  0  0
   -0.0000    0.8250    0.0000 C   0  0  0  0  0  0  0  0  0  0  0  0
    0.7145    1.2375    0.0000 C   0  0  0  0  0  0  0  0  0  0  0  0
    1.4289    0.8250    0.0000 C   0  0  0  0  0  0  0  0  0  0  0  0
    1.4289    0.0000    0.0000 O   0  0  0  0  0  0  0  0  0  0  0  0
    2.1434    1.2375    0.0000 C   0  0  0  0  0  0  0  0  0  0  0  0
    2.1434    2.0625    0.0000 O   0  0  0  0  0  0  0  0  0  0  0  0
    2.8579    0.8250    0.0000 O   0  5  0  0  0  0  0  0  0  0  0  0
   -0.7145    1.2375    0.0000 O   0  0  0  0  0  0  0  0  0  0  0  0
   -2.8579    0.8250    0.0000 O   0  0  0  0  0  0  0  0  0  0  0  0
   -7.8592    2.8875    0.0000 Na  0  3  0  0  0  0  0  0  0  0  0  0
    3.5724    0.4125    0.0000 Na  0  3  0  0  0  0  0  0  0  0  0  0
  1  2  2  0  0  0  0
  2  3  1  0  0  0  0
  3  4  2  0  0  0  0
  4  5  1  0  0  0  0
  5  6  2  0  0  0  0
  1  6  1  0  0  0  0
  6  7  1  0  0  0  0
  7  8  1  0  0  0  0
  8  9  2  0  0  0  0
  9 10  1  0  0  0  0
  5 10  1  0  0  0  0
 10 11  2  0  0  0  0
  8 12  1  0  0  0  0
 12 13  2  0  0  0  0
 12 14  1  0  0  0  0
  4 15  1  0  0  0  0
 15 16  1  0  0  0  0
 16 17  1  0  0  0  0
 17 18  1  0  0  0  0
 18 19  1  0  0  0  0
 19 20  1  0  0  0  0
 20 21  2  0  0  0  0
 21 22  1  0  0  0  0
 22 23  2  0  0  0  0
 23 24  1  0  0  0  0
 24 25  2  0  0  0  0
 20 25  1  0  0  0  0
 25 26  1  0  0  0  0
 26 27  1  0  0  0  0
 27 28  2  0  0  0  0
 28 29  1  0  0  0  0
 24 29  1  0  0  0  0
 28 30  1  0  0  0  0
 30 31  2  0  0  0  0
 30 32  1  0  0  0  0
 26 33  2  0  0  0  0
 17 34  1  0  0  0  0
M  CHG  4  14  -1  32  -1  35   1  36   1
M  END
>  <Name>
Sodium cromoglycate

>  <CAS>
15826-37-6

>  <Formula>
C23H14Na2O11

>  <MolWt>
248.30 

>  <Bioactivity>
A chromone complex that acts by inhibiting the release of chemical mediators from sensitized mast cells. It is used in the prophylactic treatment of both allergic and exercise-induced asthma, but does not affect an established asthmatic attack.

>  <Pathways>
Membrane Transporter/Ion Channel

>  <Target>
Potassium Channel inhibitor;Protein S100-P antagonist

>  <Receptor>
Calcium-activated potassium channel ;Protein S100-P

>  <Reference>
1. Overington JP, et al. Nat Rev Drug Discov. 2006 Dec;5(12):993-6. 

$$$$
51-12-7
  Mrv1561503291623562D          

 22 23  0  0  0  0            999 V2000
    0.7145   -5.3625    0.0000 C   0  0  0  0  0  0  0  0  0  0  0  0
    0.0000   -4.9500    0.0000 C   0  0  0  0  0  0  0  0  0  0  0  0
   -0.0000   -4.1250    0.0000 N   0  0  0  0  0  0  0  0  0  0  0  0
    0.7145   -3.7125    0.0000 C   0  0  0  0  0  0  0  0  0  0  0  0
    1.4289   -4.1250    0.0000 C   0  0  0  0  0  0  0  0  0  0  0  0
    1.4289   -4.9500    0.0000 C   0  0  0  0  0  0  0  0  0  0  0  0
    2.1434   -5.3625    0.0000 C   0  0  0  0  0  0  0  0  0  0  0  0
    2.8579   -4.9500    0.0000 N   0  0  0  0  0  0  0  0  0  0  0  0
    3.5724   -5.3625    0.0000 N   0  0  0  0  0  0  0  0  0  0  0  0
    4.2868   -4.9500    0.0000 C   0  0  0  0  0  0  0  0  0  0  0  0
    5.0013   -5.3625    0.0000 C   0  0  0  0  0  0  0  0  0  0  0  0
    5.7158   -4.9500    0.0000 C   0  0  0  0  0  0  0  0  0  0  0  0
    6.4302   -5.3625    0.0000 N   0  0  0  0  0  0  0  0  0  0  0  0
    7.1447   -4.9500    0.0000 C   0  0  0  0  0  0  0  0  0  0  0  0
    7.8592   -5.3625    0.0000 C   0  0  0  0  0  0  0  0  0  0  0  0
    8.5737   -4.9500    0.0000 C   0  0  0  0  0  0  0  0  0  0  0  0
    9.2881   -5.3625    0.0000 C   0  0  0  0  0  0  0  0  0  0  0  0
    9.2881   -6.1875    0.0000 C   0  0  0  0  0  0  0  0  0  0  0  0
    8.5737   -6.6000    0.0000 C   0  0  0  0  0  0  0  0  0  0  0  0
    7.8592   -6.1875    0.0000 C   0  0  0  0  0  0  0  0  0  0  0  0
    5.7158   -4.1250    0.0000 O   0  0  0  0  0  0  0  0  0  0  0  0
    2.1434   -6.1875    0.0000 O   0  0  0  0  0  0  0  0  0  0  0  0
  1  2  2  0  0  0  0
  2  3  1  0  0  0  0
  3  4  2  0  0  0  0
  4  5  1  0  0  0  0
  5  6  2  0  0  0  0
  1  6  1  0  0  0  0
  6  7  1  0  0  0  0
  7  8  1  0  0  0  0
  8  9  1  0  0  0  0
  9 10  1  0  0  0  0
 10 11  1  0  0  0  0
 11 12  1  0  0  0  0
 12 13  1  0  0  0  0
 13 14  1  0  0  0  0
 14 15  1  0  0  0  0
 15 16  2  0  0  0  0
 16 17  1  0  0  0  0
 17 18  2  0  0  0  0
 18 19  1  0  0  0  0
 19 20  2  0  0  0  0
 15 20  1  0  0  0  0
 12 21  2  0  0  0  0
  7 22  2  0  0  0  0
M  END
>  <Name>
Nialamide

>  <CAS>
51-12-7

>  <Formula>
C16H18N4O2

>  <MolWt>
298.34 

>  <Bioactivity>
An MAO inhibitor that is used as an antidepressive agent.

>  <Pathways>
Metabolism

>  <Target>
MAO inhibitor

>  <Receptor>
AOA, AOB, COMT

>  <Reference>
1. Hovevey-Sion D, et al. Neuropharmacology. 1989 Aug;28(8):791-7.

$$$$
514-36-3
  Mrv1561503291623562D          

 30 33  0  0  1  0            999 V2000
    1.5596   -2.8327    0.0000 C   0  0  1  0  0  0  0  0  0  0  0  0
    2.0914   -3.4634    0.0000 C   0  0  1  0  0  0  0  0  0  0  0  0
    2.9035   -3.3182    0.0000 C   0  0  2  0  0  0  0  0  0  0  0  0
    3.1838   -2.5422    0.0000 C   0  0  0  0  0  0  0  0  0  0  0  0
    3.9960   -2.3970    0.0000 C   0  0  0  0  0  0  0  0  0  0  0  0
    4.5278   -3.0277    0.0000 C   0  0  0  0  0  0  0  0  0  0  0  0
    5.3399   -2.8825    0.0000 O   0  0  0  0  0  0  0  0  0  0  0  0
    4.2475   -3.8037    0.0000 C   0  0  0  0  0  0  0  0  0  0  0  0
    3.4354   -3.9489    0.0000 C   0  0  0  0  0  0  0  0  0  0  0  0
    2.6520   -1.9115    0.0000 C   0  0  0  0  0  0  0  0  0  0  0  0
    1.8399   -2.0567    0.0000 C   0  0  0  0  0  0  0  0  0  0  0  0
    2.6232   -4.0941    0.0000 C   0  0  0  0  0  0  0  0  0  0  0  0
    1.8111   -4.2393    0.0000 C   0  0  2  0  0  0  0  0  0  0  0  0
    0.9990   -4.3845    0.0000 C   0  0  0  0  0  0  0  0  0  0  0  0
    0.4672   -3.7538    0.0000 C   0  0  1  0  0  0  0  0  0  0  0  0
    0.7475   -2.9779    0.0000 C   0  0  1  0  0  0  0  0  0  0  0  0
    0.0962   -2.4715    0.0000 C   0  0  0  0  0  0  0  0  0  0  0  0
   -0.5867   -2.9345    0.0000 C   0  0  0  0  0  0  0  0  0  0  0  0
   -0.3574   -3.7270    0.0000 C   0  0  2  0  0  0  0  0  0  0  0  0
   -1.1183   -4.0459    0.0000 C   0  0  0  0  0  0  0  0  0  0  0  0
   -1.7749   -3.5464    0.0000 C   0  0  0  0  0  0  0  0  0  0  0  0
   -2.5357   -3.8652    0.0000 O   0  0  0  0  0  0  0  0  0  0  0  0
   -3.1923   -3.3657    0.0000 C   0  0  0  0  0  0  0  0  0  0  0  0
   -3.9532   -3.6846    0.0000 C   0  0  0  0  0  0  0  0  0  0  0  0
   -3.0880   -2.5474    0.0000 O   0  0  0  0  0  0  0  0  0  0  0  0
   -1.2225   -4.8643    0.0000 O   0  0  0  0  0  0  0  0  0  0  0  0
   -0.4788   -4.5430    0.0000 O   0  0  0  0  0  0  0  0  0  0  0  0
    0.1073   -4.4962    0.0000 C   0  0  0  0  0  0  0  0  0  0  0  0
    2.3429   -4.8700    0.0000 O   0  0  0  0  0  0  0  0  0  0  0  0
    2.1510   -4.2862    0.0000 F   0  0  0  0  0  0  0  0  0  0  0  0
  1  2  1  0  0  0  0
  2  3  1  0  0  0  0
  3  4  1  0  0  0  0
  4  5  2  0  0  0  0
  5  6  1  0  0  0  0
  6  7  2  0  0  0  0
  6  8  1  0  0  0  0
  8  9  1  0  0  0  0
  3  9  1  0  0  0  0
  4 10  1  0  0  0  0
 10 11  1  0  0  0  0
  1 11  1  6  0  0  0
  3 12  1  1  0  0  0
  2 13  1  0  0  0  0
 13 14  1  0  0  0  0
 14 15  1  0  0  0  0
 15 16  1  0  0  0  0
  1 16  1  0  0  0  0
 16 17  1  1  0  0  0
 17 18  1  0  0  0  0
 18 19  1  0  0  0  0
 15 19  1  0  0  0  0
 19 20  1  1  0  0  0
 20 21  1  0  0  0  0
 21 22  1  0  0  0  0
 22 23  1  0  0  0  0
 23 24  1  0  0  0  0
 23 25  2  0  0  0  0
 20 26  2  0  0  0  0
 19 27  1  6  0  0  0
 15 28  1  1  0  0  0
 13 29  1  1  0  0  0
  2 30  1  6  0  0  0
M  END
>  <Name>
Fludrocortisone acetate

>  <CAS>
514-36-3

>  <Formula>
C23H31FO6

>  <MolWt>
422.50 

>  <Bioactivity>
Fludrocortisone Acetate is a synthetic mineralocorticoid, used to control the amount of sodium and fluids in your body. It is used to treat Addison_acute_s disease by decreasing the amount of sodium that is lost (excreted) in your urine?also used to increase blood pressure.

>  <Pathways>
Others

>  <Target>
Others

>  <Receptor>
Others

>  <Reference>
N

$$$$
T1032
  Mrv1561503291623562D          

 51 53  0  0  1  0            999 V2000
    2.8579    2.4750    0.0000 C   0  0  2  0  0  0  0  0  0  0  0  0
    2.1434    2.0625    0.0000 C   0  0  2  0  0  0  0  0  0  0  0  0
    1.4289    2.4750    0.0000 C   0  0  2  0  0  0  0  0  0  0  0  0
    0.7145    2.0625    0.0000 O   0  0  0  0  0  0  0  0  0  0  0  0
   -0.0000    2.4750    0.0000 C   0  0  1  0  0  0  0  0  0  0  0  0
   -0.0000    3.3000    0.0000 C   0  0  0  0  0  0  0  0  0  0  0  0
   -0.7145    3.7125    0.0000 C   0  0  2  0  0  0  0  0  0  0  0  0
   -1.4289    3.3000    0.0000 C   0  0  1  0  0  0  0  0  0  0  0  0
   -2.1434    3.7125    0.0000 O   0  0  0  0  0  0  0  0  0  0  0  0
   -1.4289    2.4750    0.0000 C   0  0  1  0  0  0  0  0  0  0  0  0
   -0.7145    2.0625    0.0000 O   0  0  0  0  0  0  0  0  0  0  0  0
   -2.1434    2.0625    0.0000 C   0  0  0  0  0  0  0  0  0  0  0  0
   -0.3272    4.4409    0.0000 O   0  0  0  0  0  0  0  0  0  0  0  0
   -0.7643    5.1406    0.0000 C   0  0  0  0  0  0  0  0  0  0  0  0
   -1.1018    4.4409    0.0000 C   0  0  0  0  0  0  0  0  0  0  0  0
    1.4289    3.3000    0.0000 C   0  0  2  0  0  0  0  0  0  0  0  0
    2.1434    3.7125    0.0000 C   0  0  0  0  0  0  0  0  0  0  0  0
    2.1434    4.5375    0.0000 O   0  0  0  0  0  0  0  0  0  0  0  0
    2.8579    4.9500    0.0000 C   0  0  1  0  0  0  0  0  0  0  0  0
    3.5724    4.5375    0.0000 C   0  0  1  0  0  0  0  0  0  0  0  0
    3.8545    5.3127    0.0000 C   0  0  0  0  0  0  0  0  0  0  0  0
    3.2902    5.3127    0.0000 O   0  0  0  0  0  0  0  0  0  0  0  0
    4.2868    4.9500    0.0000 C   0  0  1  0  0  0  0  0  0  0  0  0
    5.0013    4.5375    0.0000 C   0  0  2  0  0  0  0  0  0  0  0  0
    5.0013    3.7125    0.0000 C   0  0  0  0  0  0  0  0  0  0  0  0
    4.2868    3.3000    0.0000 C   0  0  1  0  0  0  0  0  0  0  0  0
    4.2868    2.4750    0.0000 C   0  0  0  0  0  0  0  0  0  0  0  0
    3.5724    2.0625    0.0000 C   0  0  2  0  0  0  0  0  0  0  0  0
    3.9597    1.3341    0.0000 C   0  0  0  0  0  0  0  0  0  0  0  0
    4.2102    2.0133    0.0000 O   0  0  0  0  0  0  0  0  0  0  0  0
    3.5724    3.7125    0.0000 C   0  0  0  0  0  0  0  0  0  0  0  0
    5.7158    3.3000    0.0000 O   0  0  0  0  0  0  0  0  0  0  0  0
    5.7158    4.9500    0.0000 C   0  0  0  0  0  0  0  0  0  0  0  0
    4.2868    5.7750    0.0000 O   0  0  0  0  0  0  0  0  0  0  0  0
    2.8579    5.7750    0.0000 C   0  0  0  0  0  0  0  0  0  0  0  0
    2.1434    6.1875    0.0000 C   0  0  0  0  0  0  0  0  0  0  0  0
    2.8579    3.3000    0.0000 O   0  0  0  0  0  0  0  0  0  0  0  0
    0.7145    3.7125    0.0000 C   0  0  0  0  0  0  0  0  0  0  0  0
    2.1434    1.2375    0.0000 C   0  0  0  0  0  0  0  0  0  0  0  0
    2.8579    1.6500    0.0000 O   0  0  0  0  0  0  0  0  0  0  0  0
    3.5724    1.2375    0.0000 C   0  0  1  0  0  0  0  0  0  0  0  0
    3.5724    0.4125    0.0000 C   0  0  1  0  0  0  0  0  0  0  0  0
    4.2868   -0.0000    0.0000 C   0  0  2  0  0  0  0  0  0  0  0  0
    5.0013    0.4125    0.0000 C   0  0  0  0  0  0  0  0  0  0  0  0
    5.0013    1.2375    0.0000 C   0  0  2  0  0  0  0  0  0  0  0  0
    4.2868    1.6500    0.0000 O   0  0  0  0  0  0  0  0  0  0  0  0
    5.7158    1.6500    0.0000 C   0  0  0  0  0  0  0  0  0  0  0  0
    4.2868   -0.8250    0.0000 N   0  0  0  0  0  0  0  0  0  0  0  0
    5.0013   -1.2375    0.0000 C   0  0  0  0  0  0  0  0  0  0  0  0
    3.5724   -1.2375    0.0000 C   0  0  0  0  0  0  0  0  0  0  0  0
    2.8579   -0.0000    0.0000 O   0  0  0  0  0  0  0  0  0  0  0  0
  1  2  1  0  0  0  0
  2  3  1  0  0  0  0
  3  4  1  6  0  0  0
  5  4  1  6  0  0  0
  5  6  1  0  0  0  0
  6  7  1  0  0  0  0
  7  8  1  0  0  0  0
  8  9  1  6  0  0  0
  8 10  1  0  0  0  0
 10 11  1  0  0  0  0
  5 11  1  0  0  0  0
 10 12  1  1  0  0  0
  7 13  1  6  0  0  0
 13 14  1  0  0  0  0
  7 15  1  1  0  0  0
  3 16  1  0  0  0  0
 16 17  1  0  0  0  0
 17 18  1  0  0  0  0
 18 19  1  0  0  0  0
 19 20  1  0  0  0  0
 20 21  1  6  0  0  0
 20 22  1  1  0  0  0
 20 23  1  0  0  0  0
 23 24  1  0  0  0  0
 24 25  1  0  0  0  0
 25 26  1  0  0  0  0
 26 27  1  0  0  0  0
 27 28  1  0  0  0  0
  1 28  1  0  0  0  0
 28 29  1  6  0  0  0
 28 30  1  1  0  0  0
 26 31  1  1  0  0  0
 25 32  2  0  0  0  0
 24 33  1  1  0  0  0
 23 34  1  6  0  0  0
 19 35  1  6  0  0  0
 35 36  1  0  0  0  0
 17 37  2  0  0  0  0
 16 38  1  1  0  0  0
  2 39  1  1  0  0  0
  1 40  1  1  0  0  0
 41 40  1  6  0  0  0
 41 42  1  0  0  0  0
 42 43  1  0  0  0  0
 43 44  1  0  0  0  0
 44 45  1  0  0  0  0
 45 46  1  0  0  0  0
 41 46  1  0  0  0  0
 45 47  1  6  0  0  0
 43 48  1  6  0  0  0
 48 49  1  0  0  0  0
 48 50  1  0  0  0  0
 42 51  1  1  0  0  0
M  END
>  <Name>
Erythromycin

>  <CAS>
114-07-8

>  <Formula>
C37H67NO13

>  <MolWt>
733.93 

>  <Bioactivity>
A bacteriostatic antibiotic macrolide produced by Streptomyces erythreus. Erythromycin A is considered its major active component. In sensitive organisms, it inhibits protein synthesis by binding to 50S ribosomal subunits. This binding process inhibits peptidyl transferase activity and interferes with translocation of amino acids during translation and assembly of proteins.


>  <Pathways>
Microbiology & Virology

>  <Target>
Antibiotic

>  <Receptor>
50S ribosomal protein, 23S rRNA

>  <Reference>
1. Moazed D, Noller HF. Biochimie. 1987 Aug;69(8):879-84.

$$$$
T2144
  Mrv1561503291623562D          

 58 60  0  0  1  0            999 V2000
    3.1414   -0.4013    0.0000 C   0  0  1  0  0  0  0  0  0  0  0  0
    2.6009   -1.1244    0.0000 O   0  0  0  0  0  0  0  0  0  0  0  0
    2.6403   -1.9485    0.0000 C   0  0  2  0  0  0  0  0  0  0  0  0
    2.7773   -2.7620    0.0000 O   0  0  0  0  0  0  0  0  0  0  0  0
    3.7455   -1.9799    0.0000 C   0  0  1  0  0  0  0  0  0  0  0  0
    4.2394   -1.3190    0.0000 C   0  0  0  0  0  0  0  0  0  0  0  0
    3.9141   -0.5609    0.0000 C   0  0  2  0  0  0  0  0  0  0  0  0
    4.4358    0.0782    0.0000 O   0  0  0  0  0  0  0  0  0  0  0  0
    5.2501   -0.0540    0.0000 C   0  0  0  0  0  0  0  0  0  0  0  0
    4.1045   -2.7226    0.0000 C   0  0  0  0  0  0  0  0  0  0  0  0
    1.8688   -2.2406    0.0000 C   0  0  0  0  0  0  0  0  0  0  0  0
    1.6516   -3.0365    0.0000 O   0  0  0  0  0  0  0  0  0  0  0  0
    1.3525   -1.5970    0.0000 C   0  0  0  0  0  0  0  0  0  0  0  0
    1.7837   -0.8937    0.0000 O   0  0  0  0  0  0  0  0  0  0  0  0
    0.4687   -1.4132    0.0000 N   0  0  0  0  0  0  0  0  0  0  0  0
    0.1765   -0.6416    0.0000 C   0  0  1  0  0  0  0  0  0  0  0  0
   -0.6727   -0.1605    0.0000 C   0  0  0  0  0  0  0  0  0  0  0  0
   -1.1598   -1.1476    0.0000 C   0  0  0  0  0  0  0  0  0  0  0  0
   -0.8677   -1.9191    0.0000 C   0  0  0  0  0  0  0  0  0  0  0  0
   -0.0535   -2.0519    0.0000 C   0  0  0  0  0  0  0  0  0  0  0  0
   -0.6377   -0.5088    0.0000 C   0  0  0  0  0  0  0  0  0  0  0  0
   -0.9298    0.2627    0.0000 O   0  0  0  0  0  0  0  0  0  0  0  0
   -1.7441    0.3955    0.0000 C   0  0  1  0  0  0  0  0  0  0  0  0
   -2.0362    1.1671    0.0000 C   0  0  1  0  0  0  0  0  0  0  0  0
   -1.5140    1.8058    0.0000 C   0  0  1  0  0  0  0  0  0  0  0  0
   -0.6998    1.6730    0.0000 O   0  0  0  0  0  0  0  0  0  0  0  0
   -1.8061    2.5774    0.0000 C   0  0  0  0  0  0  0  0  0  0  0  0
   -1.2840    3.2162    0.0000 C   0  0  0  0  0  0  0  0  0  0  0  0
   -1.5761    3.9877    0.0000 O   0  0  0  0  0  0  0  0  0  0  0  0
   -0.4698    3.0834    0.0000 C   0  0  1  0  0  0  0  0  0  0  0  0
   -0.1777    2.3118    0.0000 C   0  0  0  0  0  0  0  0  0  0  0  0
    0.6366    2.1790    0.0000 C   0  0  0  0  0  0  0  0  0  0  0  0
    0.9287    1.4074    0.0000 C   0  0  0  0  0  0  0  0  0  0  0  0
    1.7429    1.2746    0.0000 C   0  0  1  0  0  0  0  0  0  0  0  0
    2.0350    0.5031    0.0000 C   0  0  0  0  0  0  0  0  0  0  0  0
    2.8493    0.3703    0.0000 C   0  0  2  0  0  0  0  0  0  0  0  0
    3.3714    1.0090    0.0000 O   0  0  0  0  0  0  0  0  0  0  0  0
    4.1857    0.8762    0.0000 C   0  0  0  0  0  0  0  0  0  0  0  0
    2.2651    1.9134    0.0000 C   0  0  0  0  0  0  0  0  0  0  0  0
    1.1587    2.8178    0.0000 C   0  0  0  0  0  0  0  0  0  0  0  0
    0.0524    3.7221    0.0000 C   0  0  0  0  0  0  0  0  0  0  0  0
   -0.2398    4.4937    0.0000 C   0  0  0  0  0  0  0  0  0  0  0  0
    0.2824    5.1324    0.0000 C   0  0  0  0  0  0  0  0  0  0  0  0
   -2.8504    1.2999    0.0000 C   0  0  0  0  0  0  0  0  0  0  0  0
   -2.2662   -0.2432    0.0000 C   0  0  0  0  0  0  0  0  0  0  0  0
   -3.0804   -0.1104    0.0000 C   0  0  0  0  0  0  0  0  0  0  0  0
   -3.6026   -0.7492    0.0000 C   0  0  0  0  0  0  0  0  0  0  0  0
   -3.3104   -1.5207    0.0000 C   0  0  0  0  0  0  0  0  0  0  0  0
   -3.8326   -2.1595    0.0000 C   0  0  1  0  0  0  0  0  0  0  0  0
   -3.5405   -2.9310    0.0000 O   0  0  0  0  0  0  0  0  0  0  0  0
   -2.7262   -3.0638    0.0000 C   0  0  0  0  0  0  0  0  0  0  0  0
   -4.6468   -2.0267    0.0000 C   0  0  2  0  0  0  0  0  0  0  0  0
   -5.1689   -2.6654    0.0000 O   0  0  0  0  0  0  0  0  0  0  0  0
   -4.9389   -1.2551    0.0000 C   0  0  0  0  0  0  0  0  0  0  0  0
   -4.4168   -0.6164    0.0000 C   0  0  0  0  0  0  0  0  0  0  0  0
   -1.9741   -1.0148    0.0000 C   0  0  0  0  0  0  0  0  0  0  0  0
   -1.4356   -0.7187    0.0000 O   0  0  0  0  0  0  0  0  0  0  0  0
    7.6072    0.0000    0.0000 O   0  0  0  0  0  0  0  0  0  0  0  0
  1  2  1  6  0  0  0
  2  3  1  0  0  0  0
  3  4  1  1  0  0  0
  3  5  1  0  0  0  0
  5  6  1  0  0  0  0
  6  7  1  0  0  0  0
  1  7  1  0  0  0  0
  7  8  1  1  0  0  0
  8  9  1  0  0  0  0
  5 10  1  1  0  0  0
  3 11  1  0  0  0  0
 11 12  2  0  0  0  0
 11 13  1  0  0  0  0
 13 14  2  0  0  0  0
 13 15  1  0  0  0  0
 16 15  1  6  0  0  0
 16 17  1  0  0  0  0
 17 18  1  0  0  0  0
 18 19  1  0  0  0  0
 19 20  1  0  0  0  0
 15 20  1  0  0  0  0
 16 21  1  0  0  0  0
 21 22  1  0  0  0  0
 22 23  1  0  0  0  0
 23 24  1  0  0  0  0
 24 25  1  0  0  0  0
 25 26  1  6  0  0  0
 25 27  1  0  0  0  0
 27 28  1  0  0  0  0
 28 29  2  0  0  0  0
 28 30  1  0  0  0  0
 30 31  1  0  0  0  0
 31 32  2  0  0  0  0
 32 33  1  0  0  0  0
 33 34  1  0  0  0  0
 34 35  1  0  0  0  0
 35 36  1  0  0  0  0
  1 36  1  0  0  0  0
 36 37  1  6  0  0  0
 37 38  1  0  0  0  0
 34 39  1  6  0  0  0
 32 40  1  0  0  0  0
 30 41  1  6  0  0  0
 41 42  1  0  0  0  0
 42 43  2  0  0  0  0
 24 44  1  6  0  0  0
 23 45  1  6  0  0  0
 45 46  2  0  0  0  0
 46 47  1  0  0  0  0
 47 48  1  0  0  0  0
 48 49  1  0  0  0  0
 49 50  1  1  0  0  0
 50 51  1  0  0  0  0
 49 52  1  0  0  0  0
 52 53  1  6  0  0  0
 52 54  1  0  0  0  0
 54 55  1  0  0  0  0
 47 55  1  0  0  0  0
 45 56  1  0  0  0  0
 21 57  2  0  0  0  0
M  END
>  <Name>
Tacrolimus (FK506)

>  <CAS>
104987-11-3

>  <Formula>
C44H69NO12

>  <MolWt>
804.02 

>  <Bioactivity>
Tacrolimus is a macrolide isolated from the culture broth of a strain of Streptomyces tsukubaensis that has strong immunosuppressive activity in vivo and prevents the activation of T-lymphocytes in response to antigenic or mitogenic stimulation in vitro.


>  <Pathways>
PI3K/Akt/mTOR Signaling

>  <Target>
mTOR inhibitor

>  <Receptor>
FKBP1A

>  <Reference>
1. Flanagan WM, et al. Nature, 1991, 352(6338), 803-807.

$$$$
T1255
  Mrv1561503291623562D          

 32 34  0  0  1  0            999 V2000
   -0.7145   -1.2375    0.0000 C   0  0  2  0  0  0  0  0  0  0  0  0
   -1.4289   -1.6500    0.0000 C   0  0  2  0  0  0  0  0  0  0  0  0
   -1.4289   -2.4750    0.0000 C   0  0  2  0  0  0  0  0  0  0  0  0
   -2.1434   -2.8875    0.0000 O   0  0  0  0  0  0  0  0  0  0  0  0
   -2.1434   -3.7125    0.0000 C   0  0  1  0  0  0  0  0  0  0  0  0
   -1.4289   -4.1250    0.0000 O   0  0  0  0  0  0  0  0  0  0  0  0
   -1.4289   -4.9500    0.0000 C   0  0  1  0  0  0  0  0  0  0  0  0
   -2.1434   -5.3625    0.0000 C   0  0  1  0  0  0  0  0  0  0  0  0
   -2.1434   -6.1875    0.0000 O   0  0  0  0  0  0  0  0  0  0  0  0
   -2.8579   -4.9500    0.0000 C   0  0  0  0  0  0  0  0  0  0  0  0
   -2.8579   -4.1250    0.0000 C   0  0  1  0  0  0  0  0  0  0  0  0
   -3.5724   -3.7125    0.0000 N   0  0  0  0  0  0  0  0  0  0  0  0
   -0.7145   -5.3625    0.0000 C   0  0  0  0  0  0  0  0  0  0  0  0
   -0.7145   -6.1875    0.0000 N   0  0  0  0  0  0  0  0  0  0  0  0
   -0.7145   -2.8875    0.0000 C   0  0  1  0  0  0  0  0  0  0  0  0
   -0.7145   -3.7125    0.0000 N   0  0  0  0  0  0  0  0  0  0  0  0
   -0.0000   -2.4750    0.0000 C   0  0  0  0  0  0  0  0  0  0  0  0
   -0.0000   -1.6500    0.0000 C   0  0  1  0  0  0  0  0  0  0  0  0
    0.7145   -1.2375    0.0000 N   0  0  0  0  0  0  0  0  0  0  0  0
   -2.1434   -1.2375    0.0000 O   0  0  0  0  0  0  0  0  0  0  0  0
   -0.7145   -0.4125    0.0000 O   0  0  0  0  0  0  0  0  0  0  0  0
   -1.4289    0.0000    0.0000 C   0  0  1  0  0  0  0  0  0  0  0  0
   -2.1434   -0.4125    0.0000 O   0  0  0  0  0  0  0  0  0  0  0  0
   -2.8579    0.0000    0.0000 C   0  0  1  0  0  0  0  0  0  0  0  0
   -2.8579    0.8250    0.0000 C   0  0  1  0  0  0  0  0  0  0  0  0
   -3.5724    1.2375    0.0000 O   0  0  0  0  0  0  0  0  0  0  0  0
   -2.1434    1.2375    0.0000 C   0  0  1  0  0  0  0  0  0  0  0  0
   -1.4289    0.8250    0.0000 C   0  0  1  0  0  0  0  0  0  0  0  0
   -0.7145    1.2375    0.0000 O   0  0  0  0  0  0  0  0  0  0  0  0
   -2.1434    2.0625    0.0000 N   0  0  0  0  0  0  0  0  0  0  0  0
   -3.5724   -0.4125    0.0000 C   0  0  0  0  0  0  0  0  0  0  0  0
   -4.2868    0.0000    0.0000 O   0  0  0  0  0  0  0  0  0  0  0  0
  1  2  1  0  0  0  0
  2  3  1  0  0  0  0
  3  4  1  1  0  0  0
  5  4  1  1  0  0  0
  5  6  1  0  0  0  0
  6  7  1  0  0  0  0
  7  8  1  0  0  0  0
  8  9  1  1  0  0  0
  8 10  1  0  0  0  0
 10 11  1  0  0  0  0
  5 11  1  0  0  0  0
 11 12  1  1  0  0  0
  7 13  1  6  0  0  0
 13 14  1  0  0  0  0
  3 15  1  0  0  0  0
 15 16  1  6  0  0  0
 15 17  1  0  0  0  0
 17 18  1  0  0  0  0
  1 18  1  0  0  0  0
 18 19  1  6  0  0  0
  2 20  1  6  0  0  0
  1 21  1  1  0  0  0
 22 21  1  1  0  0  0
 22 23  1  0  0  0  0
 23 24  1  0  0  0  0
 24 25  1  0  0  0  0
 25 26  1  1  0  0  0
 25 27  1  0  0  0  0
 27 28  1  0  0  0  0
 22 28  1  0  0  0  0
 28 29  1  1  0  0  0
 27 30  1  6  0  0  0
 24 31  1  6  0  0  0
 31 32  1  0  0  0  0
M  END
>  <Name>
Tobramycin

>  <CAS>
32986-56-4

>  <Formula>
C18H37N5O9

>  <MolWt>
467.51 

>  <Bioactivity>
An aminoglycoside, broad-spectrum antibiotic produced by Streptomyces tenebrarius. It is effective against gram-negative bacteria, especially the PSEUDOMONAS species. It is a 10% component of the antibiotic complex, NEBRAMYCIN, produced by the same species. 

>  <Pathways>
Microbiology & Virology

>  <Target>
Antibacterial

>  <Receptor>
30S ribosomal protein

>  <Reference>
1. Yang G, et al. J Med Chem. 2006 Sep 7;49(18):5478-90.

$$$$
T0518
  Mrv1561503291623562D          

 34 35  0  0  1  0            999 V2000
   -0.7145    0.4383    0.0000 C   0  0  0  0  0  0  0  0  0  0  0  0
   -0.7145   -0.3867    0.0000 C   0  0  0  0  0  0  0  0  0  0  0  0
   -0.7145   -1.2117    0.0000 O   0  0  0  0  0  0  0  0  0  0  0  0
   -0.0000   -0.7992    0.0000 C   0  0  0  0  0  0  0  0  0  0  0  0
    0.0000   -1.6242    0.0000 O   0  0  0  0  0  0  0  0  0  0  0  0
    0.7145   -0.3867    0.0000 C   0  0  0  0  0  0  0  0  0  0  0  0
    1.4289   -0.7992    0.0000 C   0  0  0  0  0  0  0  0  0  0  0  0
    1.4289   -1.6242    0.0000 O   0  0  0  0  0  0  0  0  0  0  0  0
    2.1434   -0.3867    0.0000 C   0  0  0  0  0  0  0  0  0  0  0  0
    2.1434    0.4383    0.0000 C   0  0  0  0  0  0  0  0  0  0  0  0
    1.4289    0.8508    0.0000 C   0  0  0  0  0  0  0  0  0  0  0  0
    0.7145    0.4383    0.0000 C   0  0  0  0  0  0  0  0  0  0  0  0
    0.0000    0.8508    0.0000 C   0  0  0  0  0  0  0  0  0  0  0  0
    0.0000    1.6758    0.0000 O   0  0  0  0  0  0  0  0  0  0  0  0
    1.4289    1.6758    0.0000 C   0  0  0  0  0  0  0  0  0  0  0  0
    2.8579    0.8508    0.0000 C   0  0  0  0  0  0  0  0  0  0  0  0
    3.5724    0.4383    0.0000 C   0  0  0  0  0  0  0  0  0  0  0  0
    3.5724   -0.3867    0.0000 C   0  0  0  0  0  0  0  0  0  0  0  0
    2.8579   -0.7992    0.0000 C   0  0  0  0  0  0  0  0  0  0  0  0
    2.8579   -1.6242    0.0000 O   0  0  0  0  0  0  0  0  0  0  0  0
   -1.4289   -0.7992    0.0000 C   0  0  0  0  0  0  0  0  0  0  0  0
   -1.4289   -1.6242    0.0000 O   0  0  0  0  0  0  0  0  0  0  0  0
   -2.1434   -0.3867    0.0000 C   0  0  0  0  0  0  0  0  0  0  0  0
   -2.1434    0.4383    0.0000 C   0  0  0  0  0  0  0  0  0  0  0  0
   -2.8579    0.8508    0.0000 O   0  0  0  0  0  0  0  0  0  0  0  0
   -1.4289    0.8508    0.0000 C   0  0  0  0  0  0  0  0  0  0  0  0
   -1.4289    1.6758    0.0000 N   0  0  0  0  0  0  0  0  0  0  0  0
   -0.7145    2.0883    0.0000 C   0  0  0  0  0  0  0  0  0  0  0  0
   -2.1434    2.0883    0.0000 C   0  0  0  0  0  0  0  0  0  0  0  0
   -2.8579   -0.7992    0.0000 C   0  0  0  0  0  0  0  0  0  0  0  0
   -2.8579   -1.6242    0.0000 O   0  0  0  0  0  0  0  0  0  0  0  0
   -3.5724   -0.3867    0.0000 N   0  0  0  0  0  0  0  0  0  0  0  0
    6.7545    0.0000    0.0000 H   0  3  0  0  0  0  0  0  0  0  0  0
    5.9295    0.0000    0.0000 Cl  0  5  0  0  0  0  0  0  0  0  0  0
  1  2  1  0  0  0  0
  2  3  1  0  0  0  0
  2  4  1  0  0  0  0
  4  5  2  0  0  0  0
  4  6  1  0  0  0  0
  6  7  2  0  0  0  0
  7  8  1  0  0  0  0
  7  9  1  0  0  0  0
  9 10  2  0  0  0  0
 10 11  1  0  0  0  0
 11 12  1  0  0  0  0
  6 12  1  0  0  0  0
 12 13  1  0  0  0  0
  1 13  1  0  0  0  0
 13 14  1  0  0  0  0
 11 15  2  0  0  0  0
 10 16  1  0  0  0  0
 16 17  2  0  0  0  0
 17 18  1  0  0  0  0
 18 19  2  0  0  0  0
  9 19  1  0  0  0  0
 19 20  1  0  0  0  0
  2 21  1  0  0  0  0
 21 22  2  0  0  0  0
 21 23  1  0  0  0  0
 23 24  1  0  0  0  0
 24 25  2  0  0  0  0
 24 26  1  0  0  0  0
  1 26  1  0  0  0  0
 26 27  1  0  0  0  0
 27 28  1  0  0  0  0
 27 29  1  0  0  0  0
 23 30  2  0  0  0  0
 30 31  1  0  0  0  0
 30 32  1  0  0  0  0
M  CHG  2  33   1  34  -1
M  END
>  <Name>
Methacycline HCl

>  <CAS>
3963-95-9

>  <Formula>
C22H23ClN2O8

>  <MolWt>
478.88 

>  <Bioactivity>
Methacycline HCl is a tetracycline antibiotic, and also an inhibitor of epithelial–mesenchymal transition (EMT) with IC50 of roughly 5 ?M, used to treat various infections.

>  <Pathways>
Microbiology & Virology  

>  <Target>
Antibiotic

>  <Receptor>
30S ribosomal protein, 16S ribosomal protein

>  <Reference>
1. Xi Y, et al. Am J Respir Cell Mol Biol,?014, 50(1), 51-60.

$$$$
2444-46-4
  Mrv1561503291623562D          

 21 21  0  0  0  0            999 V2000
   -3.5724    0.4125    0.0000 C   0  0  0  0  0  0  0  0  0  0  0  0
   -2.8579    0.0000    0.0000 C   0  0  0  0  0  0  0  0  0  0  0  0
   -2.8579   -0.8250    0.0000 C   0  0  0  0  0  0  0  0  0  0  0  0
   -3.5724   -1.2375    0.0000 C   0  0  0  0  0  0  0  0  0  0  0  0
   -4.2868   -0.8250    0.0000 C   0  0  0  0  0  0  0  0  0  0  0  0
   -4.2868    0.0000    0.0000 C   0  0  0  0  0  0  0  0  0  0  0  0
   -5.0013    0.4125    0.0000 O   0  0  0  0  0  0  0  0  0  0  0  0
   -5.7158    0.0000    0.0000 C   0  0  0  0  0  0  0  0  0  0  0  0
   -5.0013   -1.2375    0.0000 O   0  0  0  0  0  0  0  0  0  0  0  0
   -2.1434    0.4125    0.0000 C   0  0  0  0  0  0  0  0  0  0  0  0
   -1.4289    0.0000    0.0000 N   0  0  0  0  0  0  0  0  0  0  0  0
   -0.7145    0.4125    0.0000 C   0  0  0  0  0  0  0  0  0  0  0  0
    0.0000    0.0000    0.0000 C   0  0  0  0  0  0  0  0  0  0  0  0
    0.7145    0.4125    0.0000 C   0  0  0  0  0  0  0  0  0  0  0  0
    1.4289    0.0000    0.0000 C   0  0  0  0  0  0  0  0  0  0  0  0
    2.1434    0.4125    0.0000 C   0  0  0  0  0  0  0  0  0  0  0  0
    2.8579    0.0000    0.0000 C   0  0  0  0  0  0  0  0  0  0  0  0
    3.5724    0.4125    0.0000 C   0  0  0  0  0  0  0  0  0  0  0  0
    4.2868    0.0000    0.0000 C   0  0  0  0  0  0  0  0  0  0  0  0
    5.0013    0.4125    0.0000 C   0  0  0  0  0  0  0  0  0  0  0  0
   -0.7145    1.2375    0.0000 O   0  0  0  0  0  0  0  0  0  0  0  0
  1  2  2  0  0  0  0
  2  3  1  0  0  0  0
  3  4  2  0  0  0  0
  4  5  1  0  0  0  0
  5  6  2  0  0  0  0
  1  6  1  0  0  0  0
  6  7  1  0  0  0  0
  7  8  1  0  0  0  0
  5  9  1  0  0  0  0
  2 10  1  0  0  0  0
 10 11  1  0  0  0  0
 11 12  1  0  0  0  0
 12 13  1  0  0  0  0
 13 14  1  0  0  0  0
 14 15  1  0  0  0  0
 15 16  1  0  0  0  0
 16 17  1  0  0  0  0
 17 18  1  0  0  0  0
 18 19  1  0  0  0  0
 19 20  1  0  0  0  0
 12 21  2  0  0  0  0
M  END
>  <Name>
Nonivamide

>  <CAS>
2444-46-4

>  <Formula>
C17H27NO3

>  <MolWt>
293.40 

>  <Bioactivity>
Nonivamide, also called pelargonic acid vanillylamide or PAVA, is an organic compound and a capsaicinoid. It is an amide of pelargonic acid (n-nonanoic acid) and vanillyl amine. It is present in chili peppers, but is commonly manufactured synthetically. It is more heat-stable than capsaicin.

>  <Pathways>
Membrane Transporter/Ion Channel

>  <Target>
TRP/TRPV Channel inhibitor

>  <Receptor>
TRP Channel

>  <Reference>
1. Yeh JL, et al. Brain Res Bull. 1993;30(5-6):641-8.

$$$$
69558-55-0
  Mrv1561503291623562D          

 48 48  0  0  0  0            999 V2000
    5.7775  -10.1486    0.0000 C   0  0  0  0  0  0  0  0  0  0  0  0
    5.6829   -9.3290    0.0000 C   0  0  0  0  0  0  0  0  0  0  0  0
    4.9258   -9.0012    0.0000 C   0  0  0  0  0  0  0  0  0  0  0  0
    4.2634   -9.4929    0.0000 C   0  0  0  0  0  0  0  0  0  0  0  0
    3.5063   -9.1651    0.0000 N   0  0  0  0  0  0  0  0  0  0  0  0
    2.8439   -9.6569    0.0000 C   0  0  0  0  0  0  0  0  0  0  0  0
    2.9385  -10.4764    0.0000 O   0  0  0  0  0  0  0  0  0  0  0  0
    2.0868   -9.3290    0.0000 C   0  0  0  0  0  0  0  0  0  0  0  0
    1.4244   -9.8208    0.0000 N   0  0  0  0  0  0  0  0  0  0  0  0
    0.6673   -9.4929    0.0000 C   0  0  0  0  0  0  0  0  0  0  0  0
    0.5727   -8.6734    0.0000 O   0  0  0  0  0  0  0  0  0  0  0  0
    0.0049   -9.9847    0.0000 C   0  0  0  0  0  0  0  0  0  0  0  0
   -0.7522   -9.6569    0.0000 N   0  0  0  0  0  0  0  0  0  0  0  0
   -1.4146  -10.1486    0.0000 C   0  0  0  0  0  0  0  0  0  0  0  0
   -1.3200  -10.9681    0.0000 O   0  0  0  0  0  0  0  0  0  0  0  0
   -2.1717   -9.8208    0.0000 C   0  0  0  0  0  0  0  0  0  0  0  0
   -2.8341  -10.3125    0.0000 N   0  0  0  0  0  0  0  0  0  0  0  0
   -3.5912   -9.9847    0.0000 C   0  0  0  0  0  0  0  0  0  0  0  0
   -3.6859   -9.1651    0.0000 O   0  0  0  0  0  0  0  0  0  0  0  0
   -4.2537  -10.4764    0.0000 C   0  0  0  0  0  0  0  0  0  0  0  0
   -4.1590  -11.2960    0.0000 N   0  0  0  0  0  0  0  0  0  0  0  0
   -5.0107  -10.1486    0.0000 C   0  0  0  0  0  0  0  0  0  0  0  0
   -5.6732  -10.6403    0.0000 C   0  0  0  0  0  0  0  0  0  0  0  0
   -6.4302  -10.3125    0.0000 C   0  0  0  0  0  0  0  0  0  0  0  0
   -7.0927  -10.8042    0.0000 N   0  0  0  0  0  0  0  0  0  0  0  0
   -7.8497  -10.4764    0.0000 C   0  0  0  0  0  0  0  0  0  0  0  0
   -8.5122  -10.9681    0.0000 N   0  0  0  0  0  0  0  0  0  0  0  0
   -7.9444   -9.6569    0.0000 N   0  0  0  0  0  0  0  0  0  0  0  0
   -2.2663   -9.0012    0.0000 C   0  0  0  0  0  0  0  0  0  0  0  0
   -3.0234   -8.6734    0.0000 C   0  0  0  0  0  0  0  0  0  0  0  0
   -3.1180   -7.8538    0.0000 C   0  0  0  0  0  0  0  0  0  0  0  0
   -3.8751   -7.5260    0.0000 C   0  0  0  0  0  0  0  0  0  0  0  0
   -3.9698   -6.7065    0.0000 N   0  0  0  0  0  0  0  0  0  0  0  0
    0.0995  -10.8042    0.0000 C   0  0  0  0  0  0  0  0  0  0  0  0
    0.8566  -11.1321    0.0000 C   0  0  0  0  0  0  0  0  0  0  0  0
    1.5190  -10.6403    0.0000 O   0  0  0  0  0  0  0  0  0  0  0  0
    0.9512  -11.9516    0.0000 O   0  0  0  0  0  0  0  0  0  0  0  0
    1.9922   -8.5095    0.0000 C   0  0  0  0  0  0  0  0  0  0  0  0
    1.2351   -8.1817    0.0000 C   0  0  0  0  0  0  0  0  0  0  0  0
    2.6546   -8.0177    0.0000 C   0  0  0  0  0  0  0  0  0  0  0  0
    4.3580  -10.3125    0.0000 C   0  0  0  0  0  0  0  0  0  0  0  0
    5.1151  -10.6403    0.0000 O   0  0  0  0  0  0  0  0  0  0  0  0
    3.6956  -10.8042    0.0000 O   0  0  0  0  0  0  0  0  0  0  0  0
    6.3454   -8.8373    0.0000 C   0  0  0  0  0  0  0  0  0  0  0  0
    7.1024   -9.1651    0.0000 C   0  0  0  0  0  0  0  0  0  0  0  0
    7.1971   -9.9847    0.0000 C   0  0  0  0  0  0  0  0  0  0  0  0
    6.5346  -10.4764    0.0000 C   0  0  0  0  0  0  0  0  0  0  0  0
    7.9541  -10.3125    0.0000 O   0  0  0  0  0  0  0  0  0  0  0  0
  1  2  2  0  0  0  0
  2  3  1  0  0  0  0
  3  4  1  0  0  0  0
  4  5  1  0  0  0  0
  5  6  1  0  0  0  0
  6  7  2  0  0  0  0
  6  8  1  0  0  0  0
  8  9  1  0  0  0  0
  9 10  1  0  0  0  0
 10 11  2  0  0  0  0
 10 12  1  0  0  0  0
 12 13  1  0  0  0  0
 13 14  1  0  0  0  0
 14 15  2  0  0  0  0
 14 16  1  0  0  0  0
 16 17  1  0  0  0  0
 17 18  1  0  0  0  0
 18 19  2  0  0  0  0
 18 20  1  0  0  0  0
 20 21  1  0  0  0  0
 20 22  1  0  0  0  0
 22 23  1  0  0  0  0
 23 24  1  0  0  0  0
 24 25  1  0  0  0  0
 25 26  2  0  0  0  0
 26 27  1  0  0  0  0
 26 28  1  0  0  0  0
 16 29  1  0  0  0  0
 29 30  1  0  0  0  0
 30 31  1  0  0  0  0
 31 32  1  0  0  0  0
 32 33  1  0  0  0  0
 12 34  1  0  0  0  0
 34 35  1  0  0  0  0
 35 36  1  0  0  0  0
 35 37  2  0  0  0  0
  8 38  1  0  0  0  0
 38 39  1  0  0  0  0
 38 40  1  0  0  0  0
  4 41  1  0  0  0  0
 41 42  1  0  0  0  0
 41 43  2  0  0  0  0
  2 44  1  0  0  0  0
 44 45  2  0  0  0  0
 45 46  1  0  0  0  0
 46 47  2  0  0  0  0
  1 47  1  0  0  0  0
 46 48  1  0  0  0  0
M  END
>  <Name>
Thymopentin

>  <CAS>
69558-55-0

>  <Formula>
C30H49N9O9

>  <MolWt>
679.56 

>  <Bioactivity>
Synthetic pentapeptide corresponding to the amino acids 32-36 of thymopoietin and exhibiting the full biological activity of the natural hormone. THYMOPENTIN is an immunomodulator which has been studied for possible use in the treatment of rheumatoid arthritis, AIDS, and other primary immunodeficiencies.

>  <Pathways>
Endocrinology/ Hormones

>  <Target>
Estrogen/Progestogen Receptor agonist

>  <Receptor>
Estrogen/Progestogen receptor

>  <Reference>
1. Zhu MX, et al. Exp Cell Res. 2015 Feb 15;331(2):387-98. 

$$$$
16816-67-4
  Mrv1561503291623562D          

 36 35  0  0  1  0            999 V2000
    6.5191   -5.4138    0.0000 C   0  0  1  0  0  0  0  0  0  0  0  0
    7.2336   -5.0013    0.0000 C   0  0  0  0  0  0  0  0  0  0  0  0
    7.9480   -5.4138    0.0000 N   0  0  0  0  0  0  0  0  0  0  0  0
    8.6625   -5.0013    0.0000 C   0  0  0  0  0  0  0  0  0  0  0  0
    9.3770   -5.4138    0.0000 C   0  0  0  0  0  0  0  0  0  0  0  0
   10.0914   -5.0013    0.0000 C   0  0  0  0  0  0  0  0  0  0  0  0
   10.8059   -5.4138    0.0000 N   0  0  0  0  0  0  0  0  0  0  0  0
   11.5204   -5.0013    0.0000 C   0  0  0  0  0  0  0  0  0  0  0  0
   12.2349   -5.4138    0.0000 C   0  0  0  0  0  0  0  0  0  0  0  0
   12.9493   -5.0013    0.0000 S   0  0  0  0  0  0  0  0  0  0  0  0
   13.6638   -5.4138    0.0000 S   0  0  0  0  0  0  0  0  0  0  0  0
   14.3783   -5.0013    0.0000 C   0  0  0  0  0  0  0  0  0  0  0  0
   15.0927   -5.4138    0.0000 C   0  0  0  0  0  0  0  0  0  0  0  0
   15.8072   -5.0013    0.0000 N   0  0  0  0  0  0  0  0  0  0  0  0
   16.5217   -5.4138    0.0000 C   0  0  0  0  0  0  0  0  0  0  0  0
   17.2362   -5.0013    0.0000 C   0  0  0  0  0  0  0  0  0  0  0  0
   17.9506   -5.4138    0.0000 C   0  0  0  0  0  0  0  0  0  0  0  0
   18.6651   -5.0013    0.0000 N   0  0  0  0  0  0  0  0  0  0  0  0
   19.3796   -5.4138    0.0000 C   0  0  0  0  0  0  0  0  0  0  0  0
   20.0940   -5.0013    0.0000 C   0  0  1  0  0  0  0  0  0  0  0  0
   20.8085   -5.4138    0.0000 C   0  0  0  0  0  0  0  0  0  0  0  0
   21.5230   -5.8263    0.0000 C   0  0  0  0  0  0  0  0  0  0  0  0
   22.2374   -5.4138    0.0000 O   0  0  0  0  0  0  0  0  0  0  0  0
   21.2210   -4.6993    0.0000 C   0  0  0  0  0  0  0  0  0  0  0  0
   20.3960   -6.1283    0.0000 C   0  0  0  0  0  0  0  0  0  0  0  0
   20.0940   -4.1763    0.0000 O   0  0  0  0  0  0  0  0  0  0  0  0
   19.3796   -6.2388    0.0000 O   0  0  0  0  0  0  0  0  0  0  0  0
   16.5217   -6.2388    0.0000 O   0  0  0  0  0  0  0  0  0  0  0  0
   10.0914   -4.1763    0.0000 O   0  0  0  0  0  0  0  0  0  0  0  0
    7.2336   -4.1763    0.0000 O   0  0  0  0  0  0  0  0  0  0  0  0
    5.8046   -5.0013    0.0000 C   0  0  0  0  0  0  0  0  0  0  0  0
    5.0901   -4.5888    0.0000 C   0  0  0  0  0  0  0  0  0  0  0  0
    4.3757   -5.0013    0.0000 O   0  0  0  0  0  0  0  0  0  0  0  0
    6.2171   -4.2868    0.0000 C   0  0  0  0  0  0  0  0  0  0  0  0
    5.3921   -5.7158    0.0000 C   0  0  0  0  0  0  0  0  0  0  0  0
    6.5191   -6.2388    0.0000 O   0  0  0  0  0  0  0  0  0  0  0  0
  1  2  1  0  0  0  0
  2  3  1  0  0  0  0
  3  4  1  0  0  0  0
  4  5  1  0  0  0  0
  5  6  1  0  0  0  0
  6  7  1  0  0  0  0
  7  8  1  0  0  0  0
  8  9  1  0  0  0  0
  9 10  1  0  0  0  0
 10 11  1  0  0  0  0
 11 12  1  0  0  0  0
 12 13  1  0  0  0  0
 13 14  1  0  0  0  0
 14 15  1  0  0  0  0
 15 16  1  0  0  0  0
 16 17  1  0  0  0  0
 17 18  1  0  0  0  0
 18 19  1  0  0  0  0
 19 20  1  0  0  0  0
 20 21  1  0  0  0  0
 21 22  1  0  0  0  0
 22 23  1  0  0  0  0
 21 24  1  0  0  0  0
 21 25  1  0  0  0  0
 20 26  1  6  0  0  0
 19 27  2  0  0  0  0
 15 28  2  0  0  0  0
  6 29  2  0  0  0  0
  2 30  2  0  0  0  0
  1 31  1  0  0  0  0
 31 32  1  0  0  0  0
 32 33  1  0  0  0  0
 31 34  1  0  0  0  0
 31 35  1  0  0  0  0
  1 36  1  6  0  0  0
M  END
>  <Name>
D-Pantethine

>  <CAS>
16816-67-4

>  <Formula>
C22H42N4O8S2

>  <MolWt>
554.72 

>  <Bioactivity>
D-Pantethine is the biological activity form of VB5 

>  <Pathways>
Vitamin

>  <Target>
VB

>  <Receptor>
VB5

>  <Reference>
1. Shibata K, et al. J Nutr Sci Vitaminol (Tokyo). 2013;59(2):93-9.

$$$$
T0793
  Mrv1561503291623562D          

 38 39  0  0  1  0            999 V2000
    0.3248   -1.6125    0.0000 C   0  0  2  0  0  0  0  0  0  0  0  0
    1.0392   -2.0250    0.0000 C   0  0  1  0  0  0  0  0  0  0  0  0
    1.0392   -2.8500    0.0000 C   0  0  1  0  0  0  0  0  0  0  0  0
    1.7537   -3.2625    0.0000 N   0  0  0  0  0  0  0  0  0  0  0  0
    0.3248   -3.2625    0.0000 C   0  0  1  0  0  0  0  0  0  0  0  0
   -0.3897   -2.8500    0.0000 C   0  0  2  0  0  0  0  0  0  0  0  0
   -0.3897   -2.0250    0.0000 O   0  0  0  0  0  0  0  0  0  0  0  0
   -1.1042   -3.2625    0.0000 C   0  0  0  0  0  0  0  0  0  0  0  0
   -1.1042   -4.0875    0.0000 O   0  0  0  0  0  0  0  0  0  0  0  0
    0.3248   -4.0875    0.0000 O   0  0  0  0  0  0  0  0  0  0  0  0
    1.7537   -1.6125    0.0000 O   0  0  0  0  0  0  0  0  0  0  0  0
    0.3248   -0.7875    0.0000 O   0  0  0  0  0  0  0  0  0  0  0  0
   -0.3897   -0.3750    0.0000 C   0  0  2  0  0  0  0  0  0  0  0  0
   -0.3897    0.4500    0.0000 C   0  0  2  0  0  0  0  0  0  0  0  0
   -1.1042    0.8625    0.0000 C   0  0  2  0  0  0  0  0  0  0  0  0
   -1.1042    1.6875    0.0000 O   0  0  0  0  0  0  0  0  0  0  0  0
   -0.3897    2.1000    0.0000 C   0  0  2  0  0  0  0  0  0  0  0  0
   -0.3897    2.9250    0.0000 C   0  0  1  0  0  0  0  0  0  0  0  0
    0.3248    3.3375    0.0000 C   0  0  1  0  0  0  0  0  0  0  0  0
    0.3248    4.1625    0.0000 O   0  0  0  0  0  0  0  0  0  0  0  0
    1.0392    2.9250    0.0000 C   0  0  1  0  0  0  0  0  0  0  0  0
    1.0392    2.1000    0.0000 C   0  0  2  0  0  0  0  0  0  0  0  0
    0.3248    1.6875    0.0000 O   0  0  0  0  0  0  0  0  0  0  0  0
    1.7537    1.6875    0.0000 C   0  0  0  0  0  0  0  0  0  0  0  0
    2.4682    2.1000    0.0000 N   0  0  0  0  0  0  0  0  0  0  0  0
    1.7537    3.3375    0.0000 O   0  0  0  0  0  0  0  0  0  0  0  0
   -1.1042    3.3375    0.0000 O   0  0  0  0  0  0  0  0  0  0  0  0
   -1.8187    0.4500    0.0000 C   0  0  2  0  0  0  0  0  0  0  0  0
   -1.8187   -0.3750    0.0000 C   0  0  0  0  0  0  0  0  0  0  0  0
   -1.1042   -0.7875    0.0000 C   0  0  1  0  0  0  0  0  0  0  0  0
   -1.1042   -1.6125    0.0000 N   0  0  0  0  0  0  0  0  0  0  0  0
   -2.5331    0.8625    0.0000 N   0  0  0  0  0  0  0  0  0  0  0  0
    0.3248    0.8625    0.0000 O   0  0  0  0  0  0  0  0  0  0  0  0
    5.1789   -0.8250    0.0000 O   0  0  0  0  0  0  0  0  0  0  0  0
    5.1789    0.0000    0.0000 S   0  0  0  0  0  0  0  0  0  0  0  0
    5.1789    0.8250    0.0000 O   0  0  0  0  0  0  0  0  0  0  0  0
    6.0039   -0.0000    0.0000 O   0  0  0  0  0  0  0  0  0  0  0  0
    4.3539    0.0000    0.0000 O   0  0  0  0  0  0  0  0  0  0  0  0
  1  2  1  0  0  0  0
  2  3  1  0  0  0  0
  3  4  1  1  0  0  0
  3  5  1  0  0  0  0
  5  6  1  0  0  0  0
  6  7  1  0  0  0  0
  1  7  1  0  0  0  0
  6  8  1  1  0  0  0
  8  9  1  0  0  0  0
  5 10  1  6  0  0  0
  2 11  1  6  0  0  0
  1 12  1  6  0  0  0
 13 12  1  1  0  0  0
 13 14  1  0  0  0  0
 14 15  1  0  0  0  0
 15 16  1  1  0  0  0
 17 16  1  6  0  0  0
 17 18  1  0  0  0  0
 18 19  1  0  0  0  0
 19 20  1  1  0  0  0
 19 21  1  0  0  0  0
 21 22  1  0  0  0  0
 22 23  1  0  0  0  0
 17 23  1  0  0  0  0
 22 24  1  1  0  0  0
 24 25  1  0  0  0  0
 21 26  1  6  0  0  0
 18 27  1  6  0  0  0
 15 28  1  0  0  0  0
 28 29  1  0  0  0  0
 29 30  1  0  0  0  0
 13 30  1  0  0  0  0
 30 31  1  6  0  0  0
 28 32  1  6  0  0  0
 14 33  1  6  0  0  0
 34 35  2  0  0  0  0
 35 36  2  0  0  0  0
 35 37  1  0  0  0  0
 35 38  1  0  0  0  0
M  END
>  <Name>
Kanamycin sulfate

>  <CAS>
25389-94-0

>  <Formula>
C18H38N4O15S

>  <MolWt>
582.58 

>  <Bioactivity>
Antibiotic complex produced by Streptomyces kanamyceticus from Japanese soil. Comprises 3 components: kanamycin A, the major component, and kanamycins B and C, the minor components. 

>  <Pathways>
Microbiology & Virology

>  <Target>
Antibiotic

>  <Receptor>
30S ribosomal protein, 16S ribosomal protein

>  <Reference>
1. Stavropoulos TA, Strathdee CA. Genomics. 2001 Feb 15;72(1):99-104.

$$$$
7235-40-7
  Mrv1561503291623562D          

 40 41  0  0  0  0            999 V2000
    6.6144  -11.7430    0.0000 C   0  0  0  0  0  0  0  0  0  0  0  0
    7.1447  -12.3750    0.0000 C   0  0  0  0  0  0  0  0  0  0  0  0
    7.8592  -12.7875    0.0000 C   0  0  0  0  0  0  0  0  0  0  0  0
    7.8592  -13.6125    0.0000 C   0  0  0  0  0  0  0  0  0  0  0  0
    7.1447  -14.0250    0.0000 C   0  0  0  0  0  0  0  0  0  0  0  0
    6.4302  -13.6125    0.0000 C   0  0  0  0  0  0  0  0  0  0  0  0
    6.4302  -12.7875    0.0000 C   0  0  0  0  0  0  0  0  0  0  0  0
    8.5737  -14.0250    0.0000 C   0  0  0  0  0  0  0  0  0  0  0  0
    8.5737  -12.3750    0.0000 C   0  0  0  0  0  0  0  0  0  0  0  0
    8.5737  -11.5500    0.0000 C   0  0  0  0  0  0  0  0  0  0  0  0
    9.2881  -11.1375    0.0000 C   0  0  0  0  0  0  0  0  0  0  0  0
    9.2881  -10.3125    0.0000 C   0  0  0  0  0  0  0  0  0  0  0  0
   10.0026   -9.9000    0.0000 C   0  0  0  0  0  0  0  0  0  0  0  0
   10.0026   -9.0750    0.0000 C   0  0  0  0  0  0  0  0  0  0  0  0
   10.7171   -8.6625    0.0000 C   0  0  0  0  0  0  0  0  0  0  0  0
   10.7171   -7.8375    0.0000 C   0  0  0  0  0  0  0  0  0  0  0  0
   11.4315   -7.4250    0.0000 C   0  0  0  0  0  0  0  0  0  0  0  0
   11.4315   -6.6000    0.0000 C   0  0  0  0  0  0  0  0  0  0  0  0
   12.1460   -6.1875    0.0000 C   0  0  0  0  0  0  0  0  0  0  0  0
   12.1460   -5.3625    0.0000 C   0  0  0  0  0  0  0  0  0  0  0  0
   12.8605   -4.9500    0.0000 C   0  0  0  0  0  0  0  0  0  0  0  0
   12.8605   -4.1250    0.0000 C   0  0  0  0  0  0  0  0  0  0  0  0
   13.5749   -3.7125    0.0000 C   0  0  0  0  0  0  0  0  0  0  0  0
   13.5749   -2.8875    0.0000 C   0  0  0  0  0  0  0  0  0  0  0  0
   14.2894   -2.4750    0.0000 C   0  0  0  0  0  0  0  0  0  0  0  0
   14.2894   -1.6500    0.0000 C   0  0  0  0  0  0  0  0  0  0  0  0
   15.0039   -1.2375    0.0000 C   0  0  0  0  0  0  0  0  0  0  0  0
   15.0039   -0.4125    0.0000 C   0  0  0  0  0  0  0  0  0  0  0  0
   15.7184   -0.0000    0.0000 C   0  0  0  0  0  0  0  0  0  0  0  0
   16.4328   -0.4125    0.0000 C   0  0  0  0  0  0  0  0  0  0  0  0
   16.4328   -1.2375    0.0000 C   0  0  0  0  0  0  0  0  0  0  0  0
   15.7184   -1.6500    0.0000 C   0  0  0  0  0  0  0  0  0  0  0  0
   16.1057   -2.3784    0.0000 C   0  0  0  0  0  0  0  0  0  0  0  0
   15.3310   -2.3784    0.0000 C   0  0  0  0  0  0  0  0  0  0  0  0
   14.2894   -0.0000    0.0000 C   0  0  0  0  0  0  0  0  0  0  0  0
   12.8605   -2.4750    0.0000 C   0  0  0  0  0  0  0  0  0  0  0  0
   11.4315   -4.9500    0.0000 C   0  0  0  0  0  0  0  0  0  0  0  0
   11.4315   -9.0750    0.0000 C   0  0  0  0  0  0  0  0  0  0  0  0
   10.0026  -11.5500    0.0000 C   0  0  0  0  0  0  0  0  0  0  0  0
    7.6750  -11.7430    0.0000 C   0  0  0  0  0  0  0  0  0  0  0  0
  1  2  1  0  0  0  0
  2  3  1  0  0  0  0
  3  4  2  0  0  0  0
  4  5  1  0  0  0  0
  5  6  1  0  0  0  0
  6  7  1  0  0  0  0
  2  7  1  0  0  0  0
  4  8  1  0  0  0  0
  3  9  1  0  0  0  0
  9 10  2  0  0  0  0
 10 11  1  0  0  0  0
 11 12  2  0  0  0  0
 12 13  1  0  0  0  0
 13 14  2  0  0  0  0
 14 15  1  0  0  0  0
 15 16  2  0  0  0  0
 16 17  1  0  0  0  0
 17 18  2  0  0  0  0
 18 19  1  0  0  0  0
 19 20  2  0  0  0  0
 20 21  1  0  0  0  0
 21 22  2  0  0  0  0
 22 23  1  0  0  0  0
 23 24  2  0  0  0  0
 24 25  1  0  0  0  0
 25 26  2  0  0  0  0
 26 27  1  0  0  0  0
 27 28  2  0  0  0  0
 28 29  1  0  0  0  0
 29 30  1  0  0  0  0
 30 31  1  0  0  0  0
 31 32  1  0  0  0  0
 27 32  1  0  0  0  0
 32 33  1  0  0  0  0
 32 34  1  0  0  0  0
 28 35  1  0  0  0  0
 24 36  1  0  0  0  0
 20 37  1  0  0  0  0
 15 38  1  0  0  0  0
 11 39  1  0  0  0  0
  2 40  1  0  0  0  0
M  END
>  <Name>
Beta-Carotene

>  <CAS>
7235-40-7

>  <Formula>
C40H56

>  <MolWt>
536.87 

>  <Bioactivity>
Beta Carotene is an organic compound and classified as a terpenoid. It is a precursor (inactive form) of vitamin A.

>  <Pathways>
Vitamin

>  <Target>
VA

>  <Receptor>
VA

>  <Reference>
1. Kasperczyk S, et al. Toxicol Appl Pharmacol. 2014 Oct 1;280(1):36-41. 

$$$$
485-35-8
  Mrv1561503291623562D          

 14 16  0  0  1  0            999 V2000
    1.5954   -0.0275    0.0000 C   0  0  1  0  0  0  0  0  0  0  0  0
    2.2261    0.5043    0.0000 C   0  0  0  0  0  0  0  0  0  0  0  0
    2.9031    0.0327    0.0000 C   0  0  0  0  0  0  0  0  0  0  0  0
    3.6499    0.3831    0.0000 C   0  0  0  0  0  0  0  0  0  0  0  0
    3.7199    1.2051    0.0000 C   0  0  0  0  0  0  0  0  0  0  0  0
    3.0430    1.6767    0.0000 C   0  0  0  0  0  0  0  0  0  0  0  0
    2.2961    1.3263    0.0000 N   0  0  0  0  0  0  0  0  0  0  0  0
    1.7643    1.9570    0.0000 C   0  0  0  0  0  0  0  0  0  0  0  0
    0.9423    2.0270    0.0000 C   0  0  1  0  0  0  0  0  0  0  0  0
    1.0120    0.9181    0.0000 C   0  0  0  0  0  0  0  0  0  0  0  0
    0.3115    1.4952    0.0000 C   0  0  0  0  0  0  0  0  0  0  0  0
    0.2416    0.6731    0.0000 N   0  0  0  0  0  0  0  0  0  0  0  0
    0.7734    0.0424    0.0000 C   0  0  0  0  0  0  0  0  0  0  0  0
    3.1129    2.4988    0.0000 O   0  0  0  0  0  0  0  0  0  0  0  0
  1  2  1  0  0  0  0
  2  3  2  0  0  0  0
  3  4  1  0  0  0  0
  4  5  2  0  0  0  0
  5  6  1  0  0  0  0
  6  7  1  0  0  0  0
  2  7  1  0  0  0  0
  7  8  1  0  0  0  0
  8  9  1  0  0  0  0
  9 10  1  6  0  0  0
  1 10  1  1  0  0  0
  9 11  1  0  0  0  0
 11 12  1  0  0  0  0
 12 13  1  0  0  0  0
  1 13  1  0  0  0  0
  6 14  2  0  0  0  0
M  END
>  <Name>
Cytisine

>  <CAS>
485-35-8

>  <Formula>
C11H14N2O

>  <MolWt>
190.25 

>  <Bioactivity>
Cytisine is an alkaloid that is found naturally in several plant genera such as Laburnum and Cytisus of the family Fabaceae. Recent studies have shown it to be a more effective and significantly more affordable smoking cessation treatment than nicotine replacement therapy. Also known as baptitoxine or sophorine, cytisine has been used as a smoking cessation treatment since 1964, and is relatively unknown in regions outside of central and Eastern Europe. Cytisine is a partial nicotinic acetylcholine agonist with a half-life of 4.8 hours. Recent Phase III clinical trials using Tabex (a brand of Cytisine marketed by Sopharma AD) have shown similar efficacy to varenicline, but at a fraction of the cost. 

>  <Pathways>
Neuroscience

>  <Target>
AChR agonist

>  <Receptor>
Nicotinic AChR

>  <Reference>
1. Walker N, et al. N Engl J Med. 2014 Dec 18;371(25):2353-62.

$$$$
T2216
  Mrv1561503291623562D          

 22 22  0  0  0  0            999 V2000
    1.4289    0.8250    0.0000 C   0  0  0  0  0  0  0  0  0  0  0  0
    1.4289    0.0000    0.0000 C   0  0  0  0  0  0  0  0  0  0  0  0
    2.1434   -0.4125    0.0000 C   0  0  0  0  0  0  0  0  0  0  0  0
    2.1434   -1.2375    0.0000 C   0  0  0  0  0  0  0  0  0  0  0  0
    2.8579   -1.6500    0.0000 C   0  0  0  0  0  0  0  0  0  0  0  0
    2.8579   -2.4750    0.0000 N   0  0  0  0  0  0  0  0  0  0  0  0
    3.5724   -2.8875    0.0000 C   0  0  0  0  0  0  0  0  0  0  0  0
    3.5724   -3.7125    0.0000 C   0  0  0  0  0  0  0  0  0  0  0  0
    2.1434   -2.8875    0.0000 C   0  0  0  0  0  0  0  0  0  0  0  0
    2.1434   -3.7125    0.0000 C   0  0  0  0  0  0  0  0  0  0  0  0
    3.5724   -1.2375    0.0000 O   0  0  0  0  0  0  0  0  0  0  0  0
    1.4289   -1.6500    0.0000 C   0  0  0  0  0  0  0  0  0  0  0  0
    0.7145   -2.0625    0.0000 N   0  0  0  0  0  0  0  0  0  0  0  0
    0.7145   -0.4125    0.0000 C   0  0  0  0  0  0  0  0  0  0  0  0
   -0.0000    0.0000    0.0000 C   0  0  0  0  0  0  0  0  0  0  0  0
   -0.7145   -0.4125    0.0000 O   0  0  0  0  0  0  0  0  0  0  0  0
   -0.0000    0.8250    0.0000 C   0  0  0  0  0  0  0  0  0  0  0  0
    0.7145    1.2375    0.0000 C   0  0  0  0  0  0  0  0  0  0  0  0
    0.7145    2.0625    0.0000 N   0  3  0  0  0  0  0  0  0  0  0  0
    0.0000    2.4750    0.0000 O   0  0  0  0  0  0  0  0  0  0  0  0
    1.4289    2.4750    0.0000 O   0  5  0  0  0  0  0  0  0  0  0  0
   -0.7145    1.2375    0.0000 O   0  0  0  0  0  0  0  0  0  0  0  0
  1  2  2  0  0  0  0
  2  3  1  0  0  0  0
  3  4  2  0  0  0  0
  4  5  1  0  0  0  0
  5  6  1  0  0  0  0
  6  7  1  0  0  0  0
  7  8  1  0  0  0  0
  6  9  1  0  0  0  0
  9 10  1  0  0  0  0
  5 11  2  0  0  0  0
  4 12  1  0  0  0  0
 12 13  3  0  0  0  0
  2 14  1  0  0  0  0
 14 15  2  0  0  0  0
 15 16  1  0  0  0  0
 15 17  1  0  0  0  0
 17 18  2  0  0  0  0
  1 18  1  0  0  0  0
 18 19  1  0  0  0  0
 19 20  2  0  0  0  0
 19 21  1  0  0  0  0
 17 22  1  0  0  0  0
M  CHG  2  19   1  21  -1
M  END
>  <Name>
Entacapone

>  <CAS>
130929-57-6

>  <Formula>
C14H15N3O5

>  <MolWt>
305.29 

>  <Bioactivity>
Entacapone is a selective, reversible catechol-O-methyl transferase (COMT) inhibitor for the treatment of Parkinson's disease. It is a member of the class of nitrocatechols. When administered concomittantly with levodopa and a decarboxylase inhibitor (e.g., carbidopa), increased and more sustained plasma levodopa concentrations are reached as compared to the administration of levodopa and a decarboxylase inhibitor. 

>  <Pathways>
Chromatin/Epigenetic

>  <Target>
Histone Methyltransferase inhibitor

>  <Receptor>
COMT

>  <Reference>
1. De Santi C, et al. Eur J Clin Pharmacol, 1998, 54(3), 215-219.

$$$$
T0155
  Mrv1561503291623562D          

 35 37  0  0  1  0            999 V2000
   -3.5724    2.8875    0.0000 C   0  0  1  0  0  0  0  0  0  0  0  0
   -3.5724    2.0625    0.0000 C   0  0  0  0  0  0  0  0  0  0  0  0
   -2.8579    1.6500    0.0000 C   0  0  1  0  0  0  0  0  0  0  0  0
   -2.1434    2.0625    0.0000 N   0  0  0  0  0  0  0  0  0  0  0  0
   -2.1434    2.8875    0.0000 C   0  0  0  0  0  0  0  0  0  0  0  0
   -2.8579    3.3000    0.0000 C   0  0  0  0  0  0  0  0  0  0  0  0
   -1.4289    1.6500    0.0000 C   0  0  0  0  0  0  0  0  0  0  0  0
   -1.4289    0.8250    0.0000 O   0  0  0  0  0  0  0  0  0  0  0  0
   -0.7145    2.0625    0.0000 C   0  0  0  0  0  0  0  0  0  0  0  0
   -0.0000    1.6500    0.0000 N   0  0  0  0  0  0  0  0  0  0  0  0
   -0.0000    0.8250    0.0000 S   0  0  0  0  0  0  0  0  0  0  0  0
    0.8250    0.8250    0.0000 O   0  0  0  0  0  0  0  0  0  0  0  0
   -0.8250    0.8250    0.0000 O   0  0  0  0  0  0  0  0  0  0  0  0
   -0.0000    0.0000    0.0000 C   0  0  0  0  0  0  0  0  0  0  0  0
   -0.7145   -0.4125    0.0000 C   0  0  0  0  0  0  0  0  0  0  0  0
   -0.7145   -1.2375    0.0000 C   0  0  0  0  0  0  0  0  0  0  0  0
   -0.0000   -1.6500    0.0000 C   0  0  0  0  0  0  0  0  0  0  0  0
    0.7145   -1.2375    0.0000 C   0  0  0  0  0  0  0  0  0  0  0  0
    0.7145   -0.4125    0.0000 C   0  0  0  0  0  0  0  0  0  0  0  0
    1.4289    0.0000    0.0000 N   0  0  0  0  0  0  0  0  0  0  0  0
    2.1434   -0.4125    0.0000 C   0  0  0  0  0  0  0  0  0  0  0  0
    2.1434   -1.2375    0.0000 C   0  0  0  0  0  0  0  0  0  0  0  0
    1.4289   -1.6500    0.0000 C   0  0  0  0  0  0  0  0  0  0  0  0
    2.8579   -1.6500    0.0000 C   0  0  0  0  0  0  0  0  0  0  0  0
   -0.7145    2.8875    0.0000 C   0  0  0  0  0  0  0  0  0  0  0  0
   -1.4289    3.3000    0.0000 C   0  0  0  0  0  0  0  0  0  0  0  0
   -1.4289    4.1250    0.0000 C   0  0  0  0  0  0  0  0  0  0  0  0
   -0.7145    4.5375    0.0000 N   0  0  0  0  0  0  0  0  0  0  0  0
   -0.0000    4.1250    0.0000 C   0  0  0  0  0  0  0  0  0  0  0  0
    0.7145    4.5375    0.0000 N   0  0  0  0  0  0  0  0  0  0  0  0
   -0.0000    3.3000    0.0000 N   0  0  0  0  0  0  0  0  0  0  0  0
   -2.8579    0.8250    0.0000 C   0  0  0  0  0  0  0  0  0  0  0  0
   -2.1434    0.4125    0.0000 O   0  0  0  0  0  0  0  0  0  0  0  0
   -3.5724    0.4125    0.0000 O   0  0  0  0  0  0  0  0  0  0  0  0
   -4.2868    3.3000    0.0000 C   0  0  0  0  0  0  0  0  0  0  0  0
  1  2  1  0  0  0  0
  2  3  1  0  0  0  0
  3  4  1  0  0  0  0
  4  5  1  0  0  0  0
  5  6  1  0  0  0  0
  1  6  1  0  0  0  0
  4  7  1  0  0  0  0
  7  8  2  0  0  0  0
  7  9  1  0  0  0  0
  9 10  1  0  0  0  0
 10 11  1  0  0  0  0
 11 12  2  0  0  0  0
 11 13  2  0  0  0  0
 11 14  1  0  0  0  0
 14 15  2  0  0  0  0
 15 16  1  0  0  0  0
 16 17  2  0  0  0  0
 17 18  1  0  0  0  0
 18 19  2  0  0  0  0
 14 19  1  0  0  0  0
 19 20  1  0  0  0  0
 20 21  1  0  0  0  0
 21 22  1  0  0  0  0
 22 23  1  0  0  0  0
 18 23  1  0  0  0  0
 22 24  1  0  0  0  0
  9 25  1  0  0  0  0
 25 26  1  0  0  0  0
 26 27  1  0  0  0  0
 27 28  1  0  0  0  0
 28 29  2  0  0  0  0
 29 30  1  0  0  0  0
 29 31  1  0  0  0  0
  3 32  1  1  0  0  0
 32 33  1  0  0  0  0
 32 34  2  0  0  0  0
  1 35  1  6  0  0  0
M  END
>  <Name>
Argatroban

>  <CAS>
74863-84-6

>  <Formula>
C23H36N6O5S

>  <MolWt>
508.63 

>  <Bioactivity>
Argatroban is a direct, selective thrombin inhibitor. The American College of Cardiologists (ACC) recommend using bivalirudin or argatroban in patients who have had, or at risk for, heparin induced thrombocytopenia (HIT) and are undergoing percutaneous coronary intervention. Argatroban is a non-heparin anticoagulant shown to both normalize platelet count in patients with HIT and prevent the formation of thrombi. Parental anticoagulants must be stopped and a baseline activated partial thromboplastin time must be obtained prior to administering argatroban.  

>  <Pathways>
Angiogenesis

>  <Target>
Prothrombin inhibitor

>  <Receptor>
Prothrombin

>  <Reference>
1. Kawada T, et al. Jpn J Thorac Cardiovasc Surg. 1999 Mar;47(3):104-9.

$$$$
T1084
  Mrv1561503291623562D          

 42 44  0  0  1  0            999 V2000
   -0.1738   -0.4794    0.0000 C   0  0  1  0  0  0  0  0  0  0  0  0
   -0.8883   -0.8919    0.0000 O   0  0  0  0  0  0  0  0  0  0  0  0
   -1.6027   -0.4794    0.0000 C   0  0  2  0  0  0  0  0  0  0  0  0
   -2.3172   -0.8919    0.0000 O   0  0  0  0  0  0  0  0  0  0  0  0
   -2.3172   -1.7169    0.0000 C   0  0  1  0  0  0  0  0  0  0  0  0
   -1.6027   -2.1294    0.0000 C   0  0  1  0  0  0  0  0  0  0  0  0
   -1.6027   -2.9544    0.0000 C   0  0  1  0  0  0  0  0  0  0  0  0
   -0.8883   -3.3669    0.0000 O   0  0  0  0  0  0  0  0  0  0  0  0
   -2.3172   -3.3669    0.0000 C   0  0  1  0  0  0  0  0  0  0  0  0
   -3.0317   -2.9544    0.0000 C   0  0  0  0  0  0  0  0  0  0  0  0
   -3.0317   -2.1294    0.0000 C   0  0  2  0  0  0  0  0  0  0  0  0
   -3.7461   -1.7169    0.0000 N   0  0  0  0  0  0  0  0  0  0  0  0
   -2.3172   -4.1919    0.0000 N   0  0  0  0  0  0  0  0  0  0  0  0
   -0.8883   -1.7169    0.0000 O   0  0  0  0  0  0  0  0  0  0  0  0
   -1.6027    0.3456    0.0000 C   0  0  1  0  0  0  0  0  0  0  0  0
   -0.8883    0.7581    0.0000 C   0  0  0  0  0  0  0  0  0  0  0  0
   -0.1738    0.3456    0.0000 C   0  0  2  0  0  0  0  0  0  0  0  0
    0.5407    0.7581    0.0000 O   0  0  0  0  0  0  0  0  0  0  0  0
    1.2552    0.3456    0.0000 C   0  0  2  0  0  0  0  0  0  0  0  0
    1.9696    0.7581    0.0000 O   0  0  0  0  0  0  0  0  0  0  0  0
    1.9696    1.5831    0.0000 C   0  0  2  0  0  0  0  0  0  0  0  0
    2.6841    1.9956    0.0000 C   0  0  1  0  0  0  0  0  0  0  0  0
    2.6841    2.8206    0.0000 C   0  0  1  0  0  0  0  0  0  0  0  0
    3.3986    3.2331    0.0000 O   0  0  0  0  0  0  0  0  0  0  0  0
    1.9696    3.2331    0.0000 C   0  0  1  0  0  0  0  0  0  0  0  0
    1.2552    2.8206    0.0000 C   0  0  2  0  0  0  0  0  0  0  0  0
    1.2552    1.9956    0.0000 O   0  0  0  0  0  0  0  0  0  0  0  0
    0.5407    3.2331    0.0000 C   0  0  0  0  0  0  0  0  0  0  0  0
    0.5407    4.0581    0.0000 O   0  0  0  0  0  0  0  0  0  0  0  0
    1.9696    4.0581    0.0000 N   0  0  0  0  0  0  0  0  0  0  0  0
    3.3986    1.5831    0.0000 O   0  0  0  0  0  0  0  0  0  0  0  0
    1.2552   -0.4794    0.0000 C   0  0  2  0  0  0  0  0  0  0  0  0
    0.5407   -0.8919    0.0000 C   0  0  1  0  0  0  0  0  0  0  0  0
    0.5407   -1.7169    0.0000 O   0  0  0  0  0  0  0  0  0  0  0  0
    1.9696   -0.8919    0.0000 N   0  0  0  0  0  0  0  0  0  0  0  0
    1.9696   -1.7169    0.0000 C   0  0  0  0  0  0  0  0  0  0  0  0
   -2.3172    0.7581    0.0000 N   0  0  0  0  0  0  0  0  0  0  0  0
    6.1093   -0.8250    0.0000 O   0  0  0  0  0  0  0  0  0  0  0  0
    6.1093    0.0000    0.0000 S   0  0  0  0  0  0  0  0  0  0  0  0
    6.1093    0.8250    0.0000 O   0  0  0  0  0  0  0  0  0  0  0  0
    6.9343   -0.0000    0.0000 O   0  0  0  0  0  0  0  0  0  0  0  0
    5.2843    0.0000    0.0000 O   0  0  0  0  0  0  0  0  0  0  0  0
  1  2  1  1  0  0  0
  2  3  1  0  0  0  0
  3  4  1  6  0  0  0
  5  4  1  1  0  0  0
  5  6  1  0  0  0  0
  6  7  1  0  0  0  0
  7  8  1  1  0  0  0
  7  9  1  0  0  0  0
  9 10  1  0  0  0  0
 10 11  1  0  0  0  0
  5 11  1  0  0  0  0
 11 12  1  6  0  0  0
  9 13  1  6  0  0  0
  6 14  1  6  0  0  0
  3 15  1  0  0  0  0
 15 16  1  0  0  0  0
 16 17  1  0  0  0  0
  1 17  1  0  0  0  0
 17 18  1  6  0  0  0
 18 19  1  0  0  0  0
 19 20  1  6  0  0  0
 21 20  1  1  0  0  0
 21 22  1  0  0  0  0
 22 23  1  0  0  0  0
 23 24  1  6  0  0  0
 23 25  1  0  0  0  0
 25 26  1  0  0  0  0
 26 27  1  0  0  0  0
 21 27  1  0  0  0  0
 26 28  1  6  0  0  0
 28 29  1  0  0  0  0
 25 30  1  1  0  0  0
 22 31  1  1  0  0  0
 19 32  1  0  0  0  0
 32 33  1  0  0  0  0
  1 33  1  0  0  0  0
 33 34  1  1  0  0  0
 32 35  1  1  0  0  0
 35 36  1  0  0  0  0
 15 37  1  6  0  0  0
 38 39  2  0  0  0  0
 39 40  2  0  0  0  0
 39 41  1  0  0  0  0
 39 42  1  0  0  0  0
M  END
>  <Name>
Apramycin sulfate

>  <CAS>
65710-07-8

>  <Formula>
C21H43N5O15S

>  <MolWt>
637.66 

>  <Bioactivity>
Apramycin is an aminoglycoside antibiotic and has a bactericidal action against many gram-negative bacteria. Apramycin is a structurally unique antibiotic that contains a bicyclic sugar moiety and a monosubstituted deoxystreptamine. It is not approved for use in humans.

>  <Pathways>
Microbiology & Virology

>  <Target>
Antibiotic

>  <Receptor>
16S rRNA

>  <Reference>
1. Woodcock J, et al. EMBO J. 1991 Oct; 10(10):3099-103.

$$$$
1405-89-6
  Mrv1561503291623562D          

101103  0  0  0  0            999 V2000
    4.0310   -4.6083    0.0000 C   0  0  0  0  0  0  0  0  0  0  0  0
    4.7946   -4.2960    0.0000 C   0  0  0  0  0  0  0  0  0  0  0  0
    4.9059   -3.4786    0.0000 C   0  0  0  0  0  0  0  0  0  0  0  0
    4.2536   -2.9734    0.0000 C   0  0  0  0  0  0  0  0  0  0  0  0
    3.9987   -3.7580    0.0000 N   0  0  0  0  0  0  0  0  0  0  0  0
    3.1737   -3.7580    0.0000 C   0  0  0  0  0  0  0  0  0  0  0  0
    2.6888   -4.4255    0.0000 O   0  0  0  0  0  0  0  0  0  0  0  0
    2.9188   -2.9734    0.0000 C   0  0  0  0  0  0  0  0  0  0  0  0
    2.1573   -2.4885    0.0000 N   0  0  0  0  0  0  0  0  0  0  0  0
    2.1573   -1.6635    0.0000 C   0  0  0  0  0  0  0  0  0  0  0  0
    2.8717   -1.2510    0.0000 O   0  0  0  0  0  0  0  0  0  0  0  0
    1.4428   -1.2510    0.0000 C   0  0  0  0  0  0  0  0  0  0  0  0
    1.4428   -0.4260    0.0000 N   0  0  0  0  0  0  0  0  0  0  0  0
    0.7283   -0.0135    0.0000 C   0  0  0  0  0  0  0  0  0  0  0  0
    0.0139   -0.4260    0.0000 O   0  0  0  0  0  0  0  0  0  0  0  0
    0.7283    0.8115    0.0000 C   0  0  0  0  0  0  0  0  0  0  0  0
    0.0139    0.3990    0.0000 N   0  0  0  0  0  0  0  0  0  0  0  0
   -0.7006    0.8115    0.0000 C   0  0  0  0  0  0  0  0  0  0  0  0
   -0.7006    1.6365    0.0000 O   0  0  0  0  0  0  0  0  0  0  0  0
   -1.4151    0.3990    0.0000 C   0  0  0  0  0  0  0  0  0  0  0  0
   -2.1295    0.8115    0.0000 N   0  0  0  0  0  0  0  0  0  0  0  0
   -2.8440    0.3990    0.0000 C   0  0  0  0  0  0  0  0  0  0  0  0
   -2.8440   -0.4260    0.0000 O   0  0  0  0  0  0  0  0  0  0  0  0
   -3.5585    0.8115    0.0000 C   0  0  0  0  0  0  0  0  0  0  0  0
   -4.2730    0.3990    0.0000 N   0  0  0  0  0  0  0  0  0  0  0  0
   -4.9874    0.8115    0.0000 C   0  0  0  0  0  0  0  0  0  0  0  0
   -4.9874    1.6365    0.0000 O   0  0  0  0  0  0  0  0  0  0  0  0
   -5.7019    0.3990    0.0000 C   0  0  0  0  0  0  0  0  0  0  0  0
   -6.4164    0.8115    0.0000 N   0  0  0  0  0  0  0  0  0  0  0  0
   -6.4164    1.6365    0.0000 C   0  0  0  0  0  0  0  0  0  0  0  0
   -5.7019    2.0490    0.0000 O   0  0  0  0  0  0  0  0  0  0  0  0
   -7.1308    2.0490    0.0000 C   0  0  0  0  0  0  0  0  0  0  0  0
   -7.2171    2.8695    0.0000 N   0  0  0  0  0  0  0  0  0  0  0  0
   -8.0241    3.0410    0.0000 C   0  0  0  0  0  0  0  0  0  0  0  0
   -8.4366    2.3265    0.0000 S   0  0  0  0  0  0  0  0  0  0  0  0
   -7.8845    1.7134    0.0000 C   0  0  0  0  0  0  0  0  0  0  0  0
   -8.3596    3.7947    0.0000 C   0  0  0  0  0  0  0  0  0  0  0  0
   -7.8747    4.4621    0.0000 N   0  0  0  0  0  0  0  0  0  0  0  0
   -9.1801    3.8809    0.0000 C   0  0  0  0  0  0  0  0  0  0  0  0
   -9.5157    4.6346    0.0000 C   0  0  0  0  0  0  0  0  0  0  0  0
  -10.3361    4.7208    0.0000 C   0  0  0  0  0  0  0  0  0  0  0  0
   -9.6650    3.2135    0.0000 C   0  0  0  0  0  0  0  0  0  0  0  0
   -5.7019   -0.4260    0.0000 C   0  0  0  0  0  0  0  0  0  0  0  0
   -6.4164   -0.8385    0.0000 C   0  0  0  0  0  0  0  0  0  0  0  0
   -6.4164   -1.6635    0.0000 C   0  0  0  0  0  0  0  0  0  0  0  0
   -7.1308   -0.4260    0.0000 C   0  0  0  0  0  0  0  0  0  0  0  0
   -3.5585    1.6365    0.0000 C   0  0  0  0  0  0  0  0  0  0  0  0
   -2.8440    2.0490    0.0000 C   0  0  0  0  0  0  0  0  0  0  0  0
   -2.8440    2.8740    0.0000 C   0  0  0  0  0  0  0  0  0  0  0  0
   -2.1295    3.2865    0.0000 O   0  0  0  0  0  0  0  0  0  0  0  0
   -3.5585    3.2865    0.0000 O   0  0  0  0  0  0  0  0  0  0  0  0
   -1.4151   -0.4260    0.0000 C   0  0  0  0  0  0  0  0  0  0  0  0
   -0.7006   -0.8385    0.0000 C   0  0  0  0  0  0  0  0  0  0  0  0
   -0.7006   -1.6635    0.0000 C   0  0  0  0  0  0  0  0  0  0  0  0
   -2.1295   -0.8385    0.0000 C   0  0  0  0  0  0  0  0  0  0  0  0
    0.0139    1.2240    0.0000 C   0  0  0  0  0  0  0  0  0  0  0  0
    0.0139    2.0490    0.0000 C   0  0  0  0  0  0  0  0  0  0  0  0
    0.7283    2.4615    0.0000 C   0  0  0  0  0  0  0  0  0  0  0  0
    0.7283    3.2865    0.0000 C   0  0  0  0  0  0  0  0  0  0  0  0
    1.4428    3.6990    0.0000 N   0  0  0  0  0  0  0  0  0  0  0  0
    2.1573    3.2865    0.0000 C   0  0  0  0  0  0  0  0  0  0  0  0
    2.8717    3.6990    0.0000 O   0  0  0  0  0  0  0  0  0  0  0  0
    2.1573    2.4615    0.0000 C   0  0  0  0  0  0  0  0  0  0  0  0
    2.8717    2.0490    0.0000 N   0  0  0  0  0  0  0  0  0  0  0  0
    2.8717    1.2240    0.0000 C   0  0  0  0  0  0  0  0  0  0  0  0
    2.1573    0.8115    0.0000 O   0  0  0  0  0  0  0  0  0  0  0  0
    3.5862    0.8115    0.0000 C   0  0  0  0  0  0  0  0  0  0  0  0
    3.5862   -0.0135    0.0000 N   0  0  0  0  0  0  0  0  0  0  0  0
    4.3007   -0.4260    0.0000 C   0  0  0  0  0  0  0  0  0  0  0  0
    5.0152   -0.0135    0.0000 O   0  0  0  0  0  0  0  0  0  0  0  0
    4.3007   -1.2510    0.0000 C   0  0  0  0  0  0  0  0  0  0  0  0
    5.0152   -1.6635    0.0000 N   0  0  0  0  0  0  0  0  0  0  0  0
    5.0152   -2.4885    0.0000 C   0  0  0  0  0  0  0  0  0  0  0  0
    5.7384   -2.8854    0.0000 O   0  0  0  0  0  0  0  0  0  0  0  0
    5.0152   -0.8385    0.0000 C   0  0  0  0  0  0  0  0  0  0  0  0
    5.7296   -1.2510    0.0000 C   0  0  0  0  0  0  0  0  0  0  0  0
    6.4833   -0.9154    0.0000 N   0  0  0  0  0  0  0  0  0  0  0  0
    7.0353   -1.5285    0.0000 C   0  0  0  0  0  0  0  0  0  0  0  0
    6.6228   -2.2430    0.0000 N   0  0  0  0  0  0  0  0  0  0  0  0
    5.8159   -2.0715    0.0000 C   0  0  0  0  0  0  0  0  0  0  0  0
    4.3007    1.2240    0.0000 C   0  0  0  0  0  0  0  0  0  0  0  0
    4.3007    2.0490    0.0000 C   0  0  0  0  0  0  0  0  0  0  0  0
    3.2481    2.5521    0.0000 O   0  0  0  0  0  0  0  0  0  0  0  0
    5.0152    2.4615    0.0000 O   0  0  0  0  0  0  0  0  0  0  0  0
    2.8717    2.8740    0.0000 C   0  0  0  0  0  0  0  0  0  0  0  0
    3.5862    2.4615    0.0000 C   0  0  0  0  0  0  0  0  0  0  0  0
    4.3007    2.8740    0.0000 O   0  0  0  0  0  0  0  0  0  0  0  0
    3.5862    1.6365    0.0000 N   0  0  0  0  0  0  0  0  0  0  0  0
    0.7283   -1.6635    0.0000 C   0  0  0  0  0  0  0  0  0  0  0  0
    0.7283   -2.4885    0.0000 C   0  0  0  0  0  0  0  0  0  0  0  0
    0.0139   -2.9010    0.0000 C   0  0  0  0  0  0  0  0  0  0  0  0
   -0.7006   -2.4885    0.0000 N   0  0  0  0  0  0  0  0  0  0  0  0
    2.2665   -3.4786    0.0000 C   0  0  0  0  0  0  0  0  0  0  0  0
    1.5029   -3.1662    0.0000 C   0  0  0  0  0  0  0  0  0  0  0  0
    0.8507   -3.6714    0.0000 C   0  0  0  0  0  0  0  0  0  0  0  0
    2.3779   -4.2960    0.0000 C   0  0  0  0  0  0  0  0  0  0  0  0
    5.4469   -4.8012    0.0000 C   0  0  0  0  0  0  0  0  0  0  0  0
    5.3355   -5.6186    0.0000 C   0  0  0  0  0  0  0  0  0  0  0  0
    4.5719   -5.9309    0.0000 C   0  0  0  0  0  0  0  0  0  0  0  0
    3.9197   -5.4258    0.0000 C   0  0  0  0  0  0  0  0  0  0  0  0
    8.9211    0.0000    0.0000 Zn  0  0  0  0  0  0  0  0  0  0  0  0
  1  2  2  0  0  0  0
  2  3  1  0  0  0  0
  3  4  1  0  0  0  0
  4  5  1  0  0  0  0
  5  6  1  0  0  0  0
  6  7  2  0  0  0  0
  6  8  1  0  0  0  0
  8  9  1  0  0  0  0
  9 10  1  0  0  0  0
 10 11  2  0  0  0  0
 10 12  1  0  0  0  0
 12 13  1  0  0  0  0
 13 14  1  0  0  0  0
 14 15  2  0  0  0  0
 14 16  1  0  0  0  0
 16 17  1  0  0  0  0
 17 18  1  0  0  0  0
 18 19  2  0  0  0  0
 18 20  1  0  0  0  0
 20 21  1  0  0  0  0
 21 22  1  0  0  0  0
 22 23  2  0  0  0  0
 22 24  1  0  0  0  0
 24 25  1  0  0  0  0
 25 26  1  0  0  0  0
 26 27  2  0  0  0  0
 26 28  1  0  0  0  0
 28 29  1  0  0  0  0
 29 30  1  0  0  0  0
 30 31  2  0  0  0  0
 30 32  1  0  0  0  0
 32 33  1  0  0  0  0
 33 34  2  0  0  0  0
 34 35  1  0  0  0  0
 35 36  1  0  0  0  0
 32 36  1  0  0  0  0
 34 37  1  0  0  0  0
 37 38  1  0  0  0  0
 37 39  1  0  0  0  0
 39 40  1  0  0  0  0
 40 41  1  0  0  0  0
 39 42  1  0  0  0  0
 28 43  1  0  0  0  0
 43 44  1  0  0  0  0
 44 45  1  0  0  0  0
 44 46  1  0  0  0  0
 24 47  1  0  0  0  0
 47 48  1  0  0  0  0
 48 49  1  0  0  0  0
 49 50  2  0  0  0  0
 49 51  1  0  0  0  0
 20 52  1  0  0  0  0
 52 53  1  0  0  0  0
 53 54  1  0  0  0  0
 52 55  1  0  0  0  0
 16 56  1  0  0  0  0
 56 57  1  0  0  0  0
 57 58  1  0  0  0  0
 58 59  1  0  0  0  0
 59 60  1  0  0  0  0
 60 61  1  0  0  0  0
 61 62  2  0  0  0  0
 61 63  1  0  0  0  0
 63 64  1  0  0  0  0
 64 65  1  0  0  0  0
 65 66  2  0  0  0  0
 65 67  1  0  0  0  0
 67 68  1  0  0  0  0
 68 69  1  0  0  0  0
 69 70  2  0  0  0  0
 69 71  1  0  0  0  0
 71 72  1  0  0  0  0
 72 73  1  0  0  0  0
  4 73  1  0  0  0  0
 73 74  2  0  0  0  0
 71 75  1  0  0  0  0
 75 76  1  0  0  0  0
 76 77  1  0  0  0  0
 77 78  2  0  0  0  0
 78 79  1  0  0  0  0
 79 80  2  0  0  0  0
 76 80  1  0  0  0  0
 67 81  1  0  0  0  0
 81 82  1  0  0  0  0
 82 83  2  0  0  0  0
 82 84  1  0  0  0  0
 63 85  1  0  0  0  0
 85 86  1  0  0  0  0
 86 87  2  0  0  0  0
 86 88  1  0  0  0  0
 12 89  1  0  0  0  0
 89 90  1  0  0  0  0
 90 91  1  0  0  0  0
 91 92  1  0  0  0  0
  8 93  1  0  0  0  0
 93 94  1  0  0  0  0
 94 95  1  0  0  0  0
 93 96  1  0  0  0  0
  2 97  1  0  0  0  0
 97 98  2  0  0  0  0
 98 99  1  0  0  0  0
 99100  2  0  0  0  0
  1100  1  0  0  0  0
M  END
>  <Name>
Zinc bacitracin

>  <CAS>
1405-89-6

>  <Formula>
C66H101N17O16SZn

>  <MolWt>
1486.07 

>  <Bioactivity>
Bacitracin Zinc is a dephosphorylation of the C55-isoprenyl pyrophosphate interference for inhibition of cleavage of Tyr from Met-enkephalin with IC50 of 10 ?M.

>  <Pathways>
Microbiology & Virology

>  <Target>
Antibiotic

>  <Receptor>
Others

>  <Reference>
1. Quinlan GJ, Gutteridge JM. Free Radic Res Commun. 1989;7(1):37-44.

$$$$
207844-01-7
  Mrv1561503291623562D          

 24 25  0  0  0  0            999 V2000
   -2.9506   -2.6820    0.0000 C   0  0  0  0  0  0  0  0  0  0  0  0
   -3.3631   -1.9676    0.0000 C   0  0  0  0  0  0  0  0  0  0  0  0
   -2.9506   -1.2531    0.0000 C   0  0  0  0  0  0  0  0  0  0  0  0
   -2.1256   -1.2531    0.0000 C   0  0  0  0  0  0  0  0  0  0  0  0
   -1.5736   -0.6400    0.0000 C   0  0  0  0  0  0  0  0  0  0  0  0
   -0.8199   -0.9756    0.0000 N   0  0  0  0  0  0  0  0  0  0  0  0
   -0.9062   -1.7960    0.0000 C   0  0  0  0  0  0  0  0  0  0  0  0
   -1.7131   -1.9676    0.0000 C   0  0  0  0  0  0  0  0  0  0  0  0
   -2.1256   -2.6820    0.0000 C   0  0  0  0  0  0  0  0  0  0  0  0
   -0.1055   -0.5631    0.0000 C   0  0  0  0  0  0  0  0  0  0  0  0
    0.6090   -0.9756    0.0000 O   0  0  0  0  0  0  0  0  0  0  0  0
   -0.1055    0.2619    0.0000 C   0  0  0  0  0  0  0  0  0  0  0  0
    0.6090    0.6744    0.0000 C   0  0  0  0  0  0  0  0  0  0  0  0
    0.6090    1.4994    0.0000 C   0  0  0  0  0  0  0  0  0  0  0  0
    1.3235    1.9119    0.0000 C   0  0  0  0  0  0  0  0  0  0  0  0
    1.3235    2.7369    0.0000 C   0  0  0  0  0  0  0  0  0  0  0  0
    2.0379    3.1494    0.0000 C   0  0  0  0  0  0  0  0  0  0  0  0
    2.7524    2.7369    0.0000 C   0  0  0  0  0  0  0  0  0  0  0  0
    2.7524    1.9119    0.0000 C   0  0  0  0  0  0  0  0  0  0  0  0
    2.0379    1.4994    0.0000 C   0  0  0  0  0  0  0  0  0  0  0  0
    1.3235    0.2619    0.0000 C   0  0  0  0  0  0  0  0  0  0  0  0
    2.0379    0.6744    0.0000 O   0  0  0  0  0  0  0  0  0  0  0  0
    1.3235   -0.5631    0.0000 O   0  0  0  0  0  0  0  0  0  0  0  0
    5.1096    0.0000    0.0000 O   0  0  0  0  0  0  0  0  0  0  0  0
  1  2  1  0  0  0  0
  2  3  1  0  0  0  0
  3  4  1  0  0  0  0
  4  5  1  0  0  0  0
  5  6  1  0  0  0  0
  6  7  1  0  0  0  0
  7  8  1  0  0  0  0
  4  8  1  0  0  0  0
  8  9  1  0  0  0  0
  1  9  1  0  0  0  0
  6 10  1  0  0  0  0
 10 11  2  0  0  0  0
 10 12  1  0  0  0  0
 12 13  1  0  0  0  0
 13 14  1  0  0  0  0
 14 15  1  0  0  0  0
 15 16  2  0  0  0  0
 16 17  1  0  0  0  0
 17 18  2  0  0  0  0
 18 19  1  0  0  0  0
 19 20  2  0  0  0  0
 15 20  1  0  0  0  0
 13 21  1  0  0  0  0
 21 22  2  0  0  0  0
 21 23  1  0  0  0  0
M  END
>  <Name>
Mitiglinide calcium

>  <CAS>
207844-01-7

>  <Formula>
C38H52CaN2O8

>  <MolWt>
704.91 

>  <Bioactivity>
Mitiglinide is a drug for the treatment of type 2 diabetes. Mitiglinide is thought to stimulate insulin secretion by closing the ATP-sensitive K(+) K(ATP) channels in pancreatic beta-cells. Mitiglinide belongs to the meglitinide class of blood glucose-lowering drugs and is currently co-marketed in Japan by Kissei and Takeda.

>  <Pathways>
Membrane Transporter/Ion Channel

>  <Target>
Potassium Channel

>  <Receptor>
Potassium Channel

>  <Reference>
1. Malaisse WJ. Expert Opin Pharmacother. 2008 Oct;9(15):2691-8.

$$$$
57-83-0
  Mrv1561503291623562D          

 23 26  0  0  1  0            999 V2000
    2.3387    0.7029    0.0000 C   0  0  2  0  0  0  0  0  0  0  0  0
    2.8705    0.0722    0.0000 C   0  0  2  0  0  0  0  0  0  0  0  0
    3.6826    0.2174    0.0000 C   0  0  1  0  0  0  0  0  0  0  0  0
    3.9629    0.9934    0.0000 C   0  0  2  0  0  0  0  0  0  0  0  0
    4.7875    0.9666    0.0000 C   0  0  1  0  0  0  0  0  0  0  0  0
    5.2939    1.6179    0.0000 C   0  0  0  0  0  0  0  0  0  0  0  0
    6.1111    1.5050    0.0000 C   0  0  0  0  0  0  0  0  0  0  0  0
    4.9830    2.3821    0.0000 O   0  0  0  0  0  0  0  0  0  0  0  0
    5.0168    0.1741    0.0000 C   0  0  0  0  0  0  0  0  0  0  0  0
    4.3340   -0.2889    0.0000 C   0  0  0  0  0  0  0  0  0  0  0  0
    4.3228    1.7357    0.0000 C   0  0  0  0  0  0  0  0  0  0  0  0
    3.4311    1.6241    0.0000 C   0  0  0  0  0  0  0  0  0  0  0  0
    2.6190    1.4789    0.0000 C   0  0  0  0  0  0  0  0  0  0  0  0
    2.5902   -0.7037    0.0000 C   0  0  0  0  0  0  0  0  0  0  0  0
    1.7781   -0.8489    0.0000 C   0  0  0  0  0  0  0  0  0  0  0  0
    1.2463   -0.2182    0.0000 C   0  0  0  0  0  0  0  0  0  0  0  0
    0.4342   -0.3634    0.0000 C   0  0  0  0  0  0  0  0  0  0  0  0
   -0.0976    0.2673    0.0000 C   0  0  0  0  0  0  0  0  0  0  0  0
   -0.9098    0.1221    0.0000 O   0  0  0  0  0  0  0  0  0  0  0  0
    0.1827    1.0432    0.0000 C   0  0  0  0  0  0  0  0  0  0  0  0
    0.9948    1.1884    0.0000 C   0  0  0  0  0  0  0  0  0  0  0  0
    1.5266    0.5577    0.0000 C   0  0  2  0  0  0  0  0  0  0  0  0
    1.8069    1.3336    0.0000 C   0  0  0  0  0  0  0  0  0  0  0  0
  1  2  1  0  0  0  0
  2  3  1  0  0  0  0
  3  4  1  0  0  0  0
  4  5  1  0  0  0  0
  5  6  1  1  0  0  0
  6  7  1  0  0  0  0
  6  8  2  0  0  0  0
  5  9  1  0  0  0  0
  9 10  1  0  0  0  0
  3 10  1  1  0  0  0
  4 11  1  1  0  0  0
  4 12  1  0  0  0  0
 12 13  1  0  0  0  0
  1 13  1  1  0  0  0
  2 14  1  6  0  0  0
 14 15  1  0  0  0  0
 15 16  1  0  0  0  0
 16 17  2  0  0  0  0
 17 18  1  0  0  0  0
 18 19  2  0  0  0  0
 18 20  1  0  0  0  0
 20 21  1  0  0  0  0
 21 22  1  0  0  0  0
  1 22  1  0  0  0  0
 16 22  1  0  0  0  0
 22 23  1  1  0  0  0
M  END
>  <Name>
Progesterone

>  <CAS>
57-83-0

>  <Formula>
C21H30O2

>  <MolWt>
314.47 

>  <Bioactivity>
Progesterone is a critical hormone for the maintenance of pregnancy, menstrual cycle,  endometrium and functions with its receptor

>  <Pathways>
Endocrinology/ Hormones

>  <Target>
Estrogen/Progestogen Receptor agonist

>  <Receptor>
Estrogen/progestogen Receptor;Kappa-type opioid receptor

>  <Reference>
1.Boonyaratanakornkit V, et al. Mol Endocrinol. 2007 Feb;21(2):359-75. 

$$$$
83881-52-1
  Mrv1561503291623562D          

 31 29  0  0  0  0            999 V2000
    0.4125    0.0000    0.0000 H   0  3  0  0  0  0  0  0  0  0  0  0
    3.5946    0.0000    0.0000 H   0  3  0  0  0  0  0  0  0  0  0  0
   -1.8523   -2.8875    0.0000 C   0  0  0  0  0  0  0  0  0  0  0  0
   -1.8523   -3.7125    0.0000 C   0  0  0  0  0  0  0  0  0  0  0  0
   -1.1379   -4.1250    0.0000 C   0  0  0  0  0  0  0  0  0  0  0  0
   -0.4234   -3.7125    0.0000 N   0  0  0  0  0  0  0  0  0  0  0  0
   -0.4234   -2.8875    0.0000 C   0  0  0  0  0  0  0  0  0  0  0  0
    0.2911   -2.4750    0.0000 C   0  0  0  0  0  0  0  0  0  0  0  0
    1.0056   -2.8875    0.0000 N   0  0  0  0  0  0  0  0  0  0  0  0
    1.0056   -3.7125    0.0000 C   0  0  0  0  0  0  0  0  0  0  0  0
    0.2911   -4.1250    0.0000 C   0  0  0  0  0  0  0  0  0  0  0  0
    1.7200   -2.4750    0.0000 C   0  0  0  0  0  0  0  0  0  0  0  0
    2.4345   -2.8875    0.0000 C   0  0  0  0  0  0  0  0  0  0  0  0
    3.1490   -2.4750    0.0000 O   0  0  0  0  0  0  0  0  0  0  0  0
    3.8634   -2.8875    0.0000 C   0  0  0  0  0  0  0  0  0  0  0  0
    4.5779   -2.4750    0.0000 C   0  0  0  0  0  0  0  0  0  0  0  0
    5.2924   -2.8875    0.0000 O   0  0  0  0  0  0  0  0  0  0  0  0
    4.5779   -1.6500    0.0000 O   0  0  0  0  0  0  0  0  0  0  0  0
   -1.1379   -4.9500    0.0000 C   0  0  0  0  0  0  0  0  0  0  0  0
   -0.4234   -5.3625    0.0000 C   0  0  0  0  0  0  0  0  0  0  0  0
   -0.4234   -6.1875    0.0000 C   0  0  0  0  0  0  0  0  0  0  0  0
   -1.1379   -6.6000    0.0000 C   0  0  0  0  0  0  0  0  0  0  0  0
   -1.8523   -6.1875    0.0000 C   0  0  0  0  0  0  0  0  0  0  0  0
   -1.8523   -5.3625    0.0000 C   0  0  0  0  0  0  0  0  0  0  0  0
   -2.5668   -4.1250    0.0000 C   0  0  0  0  0  0  0  0  0  0  0  0
   -3.2813   -3.7125    0.0000 C   0  0  0  0  0  0  0  0  0  0  0  0
   -3.2813   -2.8875    0.0000 C   0  0  0  0  0  0  0  0  0  0  0  0
   -2.5668   -2.4750    0.0000 C   0  0  0  0  0  0  0  0  0  0  0  0
   -3.9957   -2.4750    0.0000 Cl  0  0  0  0  0  0  0  0  0  0  0  0
   -0.4125    0.0000    0.0000 Cl  0  5  0  0  0  0  0  0  0  0  0  0
    2.7696    0.0000    0.0000 Cl  0  5  0  0  0  0  0  0  0  0  0  0
  3  4  2  0  0  0  0
  4  5  1  0  0  0  0
  5  6  1  0  0  0  0
  6  7  1  0  0  0  0
  7  8  1  0  0  0  0
  8  9  1  0  0  0  0
  9 10  1  0  0  0  0
 10 11  1  0  0  0  0
  6 11  1  0  0  0  0
  9 12  1  0  0  0  0
 12 13  1  0  0  0  0
 13 14  1  0  0  0  0
 14 15  1  0  0  0  0
 15 16  1  0  0  0  0
 16 17  1  0  0  0  0
 16 18  2  0  0  0  0
  5 19  1  0  0  0  0
 19 20  2  0  0  0  0
 20 21  1  0  0  0  0
 21 22  2  0  0  0  0
 22 23  1  0  0  0  0
 23 24  2  0  0  0  0
 19 24  1  0  0  0  0
  4 25  1  0  0  0  0
 25 26  2  0  0  0  0
 26 27  1  0  0  0  0
 27 28  2  0  0  0  0
  3 28  1  0  0  0  0
 27 29  1  0  0  0  0
M  CHG  4   1   1   2   1  30  -1  31  -1
M  END
>  <Name>
Cetirizine 2HCl

>  <CAS>
83881-52-1

>  <Formula>
C21H27Cl3N2O3

>  <MolWt>
461.81 

>  <Bioactivity>
Cetirizine dihydrochloride is a potent second-generation histamine H1 antagonist that is effective in the treatment of allergic rhinitis, chronic urticaria, and pollen-induced asthma. Unlike many traditional antihistamines, it does not cause drowsiness or anticholinergic side effects.


>  <Pathways>
Neuroscience

>  <Target>
Histamine Receptor antagonist

>  <Receptor>
Histamine H1 receptor

>  <Reference>
1. Christophe B, et al. Eur J Pharmacol. 2003 May 30;470(1-2):87-94.

$$$$
434-03-7
  Mrv1561503291623562D          

 23 26  0  0  1  0            999 V2000
    0.7475   -2.9779    0.0000 C   0  0  1  0  0  0  0  0  0  0  0  0
    1.5596   -2.8327    0.0000 C   0  0  1  0  0  0  0  0  0  0  0  0
    2.0914   -3.4634    0.0000 C   0  0  1  0  0  0  0  0  0  0  0  0
    2.9035   -3.3182    0.0000 C   0  0  2  0  0  0  0  0  0  0  0  0
    3.1838   -2.5422    0.0000 C   0  0  0  0  0  0  0  0  0  0  0  0
    3.9960   -2.3970    0.0000 C   0  0  0  0  0  0  0  0  0  0  0  0
    4.5278   -3.0277    0.0000 C   0  0  0  0  0  0  0  0  0  0  0  0
    5.3399   -2.8825    0.0000 O   0  0  0  0  0  0  0  0  0  0  0  0
    4.2475   -3.8037    0.0000 C   0  0  0  0  0  0  0  0  0  0  0  0
    3.4354   -3.9489    0.0000 C   0  0  0  0  0  0  0  0  0  0  0  0
    2.6520   -1.9115    0.0000 C   0  0  0  0  0  0  0  0  0  0  0  0
    1.8399   -2.0567    0.0000 C   0  0  0  0  0  0  0  0  0  0  0  0
    2.6232   -4.0941    0.0000 C   0  0  0  0  0  0  0  0  0  0  0  0
    1.8111   -4.2393    0.0000 C   0  0  0  0  0  0  0  0  0  0  0  0
    0.9990   -4.3845    0.0000 C   0  0  0  0  0  0  0  0  0  0  0  0
    0.4672   -3.7538    0.0000 C   0  0  2  0  0  0  0  0  0  0  0  0
   -0.3574   -3.7270    0.0000 C   0  0  1  0  0  0  0  0  0  0  0  0
   -1.1695   -3.8722    0.0000 C   0  0  0  0  0  0  0  0  0  0  0  0
   -1.9816   -4.0174    0.0000 C   0  0  0  0  0  0  0  0  0  0  0  0
   -0.2978   -4.5498    0.0000 O   0  0  0  0  0  0  0  0  0  0  0  0
   -0.5867   -2.9345    0.0000 C   0  0  0  0  0  0  0  0  0  0  0  0
    0.0962   -2.4715    0.0000 C   0  0  0  0  0  0  0  0  0  0  0  0
    0.1073   -4.4962    0.0000 C   0  0  0  0  0  0  0  0  0  0  0  0
  1  2  1  0  0  0  0
  2  3  1  0  0  0  0
  3  4  1  0  0  0  0
  4  5  1  0  0  0  0
  5  6  2  0  0  0  0
  6  7  1  0  0  0  0
  7  8  2  0  0  0  0
  7  9  1  0  0  0  0
  9 10  1  0  0  0  0
  4 10  1  0  0  0  0
  5 11  1  0  0  0  0
 11 12  1  0  0  0  0
  2 12  1  6  0  0  0
  4 13  1  1  0  0  0
  3 14  1  1  0  0  0
 14 15  1  0  0  0  0
 15 16  1  0  0  0  0
  1 16  1  0  0  0  0
 16 17  1  0  0  0  0
 17 18  1  6  0  0  0
 18 19  3  0  0  0  0
 17 20  1  1  0  0  0
 17 21  1  0  0  0  0
 21 22  1  0  0  0  0
  1 22  1  1  0  0  0
 16 23  1  1  0  0  0
M  END
>  <Name>
Ethisterone

>  <CAS>
434-03-7

>  <Formula>
C21H28O2

>  <MolWt>
312.45 

>  <Bioactivity>
Ethisterone is a progestogen hormone being considered to treat prostate cancer.

>  <Pathways>
Endocrinology/ Hormones

>  <Target>
Estrogen/Progestogen Receptor agonist

>  <Receptor>
Estrogen/progestogen Receptor

>  <Reference>
1. Herbai G, et al. Acta Pharmacol Toxicol (Copenh), 1971, 29(23), 177-193.


$$$$
T0714
  Mrv1561503291623562D          

 22 24  0  0  0  0            999 V2000
    3.2789    1.2375    0.0000 C   0  0  0  0  0  0  0  0  0  0  0  0
    3.9934    0.8250    0.0000 C   0  0  0  0  0  0  0  0  0  0  0  0
    4.7079    1.2375    0.0000 S   0  0  0  0  0  0  0  0  0  0  0  0
    5.4223    0.8250    0.0000 C   0  0  0  0  0  0  0  0  0  0  0  0
    6.1368    1.2375    0.0000 C   0  0  0  0  0  0  0  0  0  0  0  0
    6.8513    0.8250    0.0000 C   0  0  0  0  0  0  0  0  0  0  0  0
    6.8513    0.0000    0.0000 C   0  0  0  0  0  0  0  0  0  0  0  0
    6.1368   -0.4125    0.0000 C   0  0  0  0  0  0  0  0  0  0  0  0
    5.4223    0.0000    0.0000 C   0  0  0  0  0  0  0  0  0  0  0  0
    4.7079    2.0625    0.0000 O   0  0  0  0  0  0  0  0  0  0  0  0
    3.9934    0.0000    0.0000 C   0  0  0  0  0  0  0  0  0  0  0  0
    3.2789   -0.4125    0.0000 C   0  0  0  0  0  0  0  0  0  0  0  0
    2.5645   -0.0000    0.0000 C   0  0  0  0  0  0  0  0  0  0  0  0
    2.5645    0.8250    0.0000 C   0  0  0  0  0  0  0  0  0  0  0  0
    1.7798    1.0799    0.0000 N   0  0  0  0  0  0  0  0  0  0  0  0
    1.2949    0.4125    0.0000 C   0  0  0  0  0  0  0  0  0  0  0  0
    1.7798   -0.2549    0.0000 N   0  0  0  0  0  0  0  0  0  0  0  0
    0.4699    0.4125    0.0000 N   0  0  0  0  0  0  0  0  0  0  0  0
    0.0574   -0.3020    0.0000 C   0  0  0  0  0  0  0  0  0  0  0  0
   -0.7676   -0.3020    0.0000 O   0  0  0  0  0  0  0  0  0  0  0  0
   -1.1801   -1.0164    0.0000 C   0  0  0  0  0  0  0  0  0  0  0  0
    0.4699   -1.0164    0.0000 O   0  0  0  0  0  0  0  0  0  0  0  0
  1  2  2  0  0  0  0
  2  3  1  0  0  0  0
  3  4  1  0  0  0  0
  4  5  2  0  0  0  0
  5  6  1  0  0  0  0
  6  7  2  0  0  0  0
  7  8  1  0  0  0  0
  8  9  2  0  0  0  0
  4  9  1  0  0  0  0
  3 10  2  0  0  0  0
  2 11  1  0  0  0  0
 11 12  2  0  0  0  0
 12 13  1  0  0  0  0
 13 14  2  0  0  0  0
  1 14  1  0  0  0  0
 14 15  1  0  0  0  0
 15 16  1  0  0  0  0
 16 17  2  0  0  0  0
 13 17  1  0  0  0  0
 16 18  1  0  0  0  0
 18 19  1  0  0  0  0
 19 20  1  0  0  0  0
 20 21  1  0  0  0  0
 19 22  2  0  0  0  0
M  END
>  <Name>
Oxfendazole

>  <CAS>
53716-50-0

>  <Formula>
C15H13N3O3S

>  <MolWt>
315.35 

>  <Bioactivity>
Oxfendazole is a broad spectrum benzimidazole anthelmintic. Its main use is for protecting livestock against roundworm, strongyles and pinworms. Oxfendazole is the sulfoxide metabolite of fenbendazole,

>  <Pathways>
Cell Cycle/Checkpoint

>  <Target>
Microtubule Associated inhibitor; Glucose uptake inhibitor

>  <Receptor>
Tubulin chain;Glucose uptake inhibitor

>  <Reference>
1. Ortiz P, et al. Acta Trop. 2014 Aug;136:10-3. 

$$$$
T1190
  Mrv1561503291623562D          

 68 72  0  0  1  0            999 V2000
    0.2856    0.3784    0.0000 C   0  0  0  0  0  0  0  0  0  0  0  0
    1.0001    0.7909    0.0000 S   0  0  0  0  0  0  0  0  0  0  0  0
    1.7146    0.3784    0.0000 C   0  0  0  0  0  0  0  0  0  0  0  0
    1.7146   -0.4466    0.0000 C   0  0  0  0  0  0  0  0  0  0  0  0
    1.0001   -0.8591    0.0000 C   0  0  0  0  0  0  0  0  0  0  0  0
    0.2856   -0.4466    0.0000 N   0  0  0  0  0  0  0  0  0  0  0  0
   -0.5394   -0.4466    0.0000 C   0  0  0  0  0  0  0  0  0  0  0  0
   -1.1227   -1.0300    0.0000 O   0  0  0  0  0  0  0  0  0  0  0  0
   -0.5394    0.3784    0.0000 C   0  0  0  0  0  0  0  0  0  0  0  0
   -1.1227    0.9617    0.0000 N   0  0  0  0  0  0  0  0  0  0  0  0
   -1.9196    0.7482    0.0000 C   0  0  0  0  0  0  0  0  0  0  0  0
   -2.1332   -0.0487    0.0000 O   0  0  0  0  0  0  0  0  0  0  0  0
   -2.5030    1.3316    0.0000 C   0  0  0  0  0  0  0  0  0  0  0  0
   -2.2895    2.1285    0.0000 N   0  0  0  0  0  0  0  0  0  0  0  0
   -1.4926    2.3420    0.0000 O   0  0  0  0  0  0  0  0  0  0  0  0
   -1.2791    3.1389    0.0000 C   0  0  0  0  0  0  0  0  0  0  0  0
   -3.2999    1.1181    0.0000 C   0  0  0  0  0  0  0  0  0  0  0  0
   -3.5955    0.3478    0.0000 C   0  0  0  0  0  0  0  0  0  0  0  0
   -4.4194    0.3910    0.0000 S   0  0  0  0  0  0  0  0  0  0  0  0
   -4.6329    1.1879    0.0000 C   0  0  0  0  0  0  0  0  0  0  0  0
   -3.9410    1.6372    0.0000 N   0  0  0  0  0  0  0  0  0  0  0  0
   -5.4031    1.4836    0.0000 N   0  0  0  0  0  0  0  0  0  0  0  0
    1.0001   -1.6841    0.0000 C   0  0  0  0  0  0  0  0  0  0  0  0
    0.2856   -2.0966    0.0000 O   0  0  0  0  0  0  0  0  0  0  0  0
    1.7146   -2.0966    0.0000 O   0  0  0  0  0  0  0  0  0  0  0  0
    2.4290   -0.8591    0.0000 C   0  0  0  0  0  0  0  0  0  0  0  0
    3.1435   -0.4466    0.0000 S   0  0  0  0  0  0  0  0  0  0  0  0
    3.8580   -0.8591    0.0000 C   0  0  0  0  0  0  0  0  0  0  0  0
    4.6116   -0.5236    0.0000 N   0  0  0  0  0  0  0  0  0  0  0  0
    5.1637   -1.1367    0.0000 N   0  0  0  0  0  0  0  0  0  0  0  0
    4.7512   -1.8511    0.0000 N   0  0  0  0  0  0  0  0  0  0  0  0
    3.9442   -1.6796    0.0000 N   0  0  0  0  0  0  0  0  0  0  0  0
    3.3311   -2.2316    0.0000 C   0  0  0  0  0  0  0  0  0  0  0  0
   13.2096    0.3784    0.0000 C   0  0  0  0  0  0  0  0  0  0  0  0
   13.9240    0.7909    0.0000 S   0  0  0  0  0  0  0  0  0  0  0  0
   14.6385    0.3784    0.0000 C   0  0  0  0  0  0  0  0  0  0  0  0
   14.6385   -0.4466    0.0000 C   0  0  0  0  0  0  0  0  0  0  0  0
   13.9240   -0.8591    0.0000 C   0  0  0  0  0  0  0  0  0  0  0  0
   13.2096   -0.4466    0.0000 N   0  0  0  0  0  0  0  0  0  0  0  0
   12.3846   -0.4466    0.0000 C   0  0  0  0  0  0  0  0  0  0  0  0
   11.8012   -1.0300    0.0000 O   0  0  0  0  0  0  0  0  0  0  0  0
   12.3846    0.3784    0.0000 C   0  0  0  0  0  0  0  0  0  0  0  0
   11.8012    0.9617    0.0000 N   0  0  0  0  0  0  0  0  0  0  0  0
   11.0043    0.7482    0.0000 C   0  0  0  0  0  0  0  0  0  0  0  0
   10.7908   -0.0487    0.0000 O   0  0  0  0  0  0  0  0  0  0  0  0
   10.4210    1.3316    0.0000 C   0  0  0  0  0  0  0  0  0  0  0  0
   10.6345    2.1285    0.0000 N   0  0  0  0  0  0  0  0  0  0  0  0
   11.4314    2.3420    0.0000 O   0  0  0  0  0  0  0  0  0  0  0  0
   11.6449    3.1389    0.0000 C   0  0  0  0  0  0  0  0  0  0  0  0
    9.6241    1.1181    0.0000 C   0  0  0  0  0  0  0  0  0  0  0  0
    9.3284    0.3478    0.0000 C   0  0  0  0  0  0  0  0  0  0  0  0
    8.5046    0.3910    0.0000 S   0  0  0  0  0  0  0  0  0  0  0  0
    8.2910    1.1879    0.0000 C   0  0  0  0  0  0  0  0  0  0  0  0
    8.9829    1.6372    0.0000 N   0  0  0  0  0  0  0  0  0  0  0  0
    7.5208    1.4836    0.0000 N   0  0  0  0  0  0  0  0  0  0  0  0
   13.9240   -1.6841    0.0000 C   0  0  0  0  0  0  0  0  0  0  0  0
   13.2096   -2.0966    0.0000 O   0  0  0  0  0  0  0  0  0  0  0  0
   14.6385   -2.0966    0.0000 O   0  0  0  0  0  0  0  0  0  0  0  0
   15.3530   -0.8591    0.0000 C   0  0  0  0  0  0  0  0  0  0  0  0
   16.0675   -0.4466    0.0000 S   0  0  0  0  0  0  0  0  0  0  0  0
   16.7819   -0.8591    0.0000 C   0  0  0  0  0  0  0  0  0  0  0  0
   17.5356   -0.5236    0.0000 N   0  0  0  0  0  0  0  0  0  0  0  0
   18.0876   -1.1367    0.0000 N   0  0  0  0  0  0  0  0  0  0  0  0
   17.6751   -1.8511    0.0000 N   0  0  0  0  0  0  0  0  0  0  0  0
   16.8682   -1.6796    0.0000 N   0  0  0  0  0  0  0  0  0  0  0  0
   16.2551   -2.2316    0.0000 C   0  0  0  0  0  0  0  0  0  0  0  0
    0.4125   -3.8816    0.0000 H   0  3  0  0  0  0  0  0  0  0  0  0
   -0.4125   -3.8816    0.0000 Cl  0  5  0  0  0  0  0  0  0  0  0  0
  1  2  1  0  0  0  0
  2  3  1  0  0  0  0
  3  4  1  0  0  0  0
  4  5  2  0  0  0  0
  5  6  1  0  0  0  0
  1  6  1  0  0  0  0
  6  7  1  0  0  0  0
  7  8  2  0  0  0  0
  7  9  1  0  0  0  0
  1  9  1  0  0  0  0
  9 10  1  0  0  0  0
 10 11  1  0  0  0  0
 11 12  2  0  0  0  0
 11 13  1  0  0  0  0
 13 14  2  0  0  0  0
 14 15  1  0  0  0  0
 15 16  1  0  0  0  0
 13 17  1  0  0  0  0
 17 18  2  0  0  0  0
 18 19  1  0  0  0  0
 19 20  1  0  0  0  0
 20 21  2  0  0  0  0
 17 21  1  0  0  0  0
 20 22  1  0  0  0  0
  5 23  1  0  0  0  0
 23 24  1  0  0  0  0
 23 25  2  0  0  0  0
  4 26  1  0  0  0  0
 26 27  1  0  0  0  0
 27 28  1  0  0  0  0
 28 29  2  0  0  0  0
 29 30  1  0  0  0  0
 30 31  2  0  0  0  0
 31 32  1  0  0  0  0
 28 32  1  0  0  0  0
 32 33  1  0  0  0  0
 34 35  1  0  0  0  0
 35 36  1  0  0  0  0
 36 37  1  0  0  0  0
 37 38  2  0  0  0  0
 38 39  1  0  0  0  0
 34 39  1  0  0  0  0
 39 40  1  0  0  0  0
 40 41  2  0  0  0  0
 40 42  1  0  0  0  0
 34 42  1  0  0  0  0
 42 43  1  0  0  0  0
 43 44  1  0  0  0  0
 44 45  2  0  0  0  0
 44 46  1  0  0  0  0
 46 47  2  0  0  0  0
 47 48  1  0  0  0  0
 48 49  1  0  0  0  0
 46 50  1  0  0  0  0
 50 51  2  0  0  0  0
 51 52  1  0  0  0  0
 52 53  1  0  0  0  0
 53 54  2  0  0  0  0
 50 54  1  0  0  0  0
 53 55  1  0  0  0  0
 38 56  1  0  0  0  0
 56 57  1  0  0  0  0
 56 58  2  0  0  0  0
 37 59  1  0  0  0  0
 59 60  1  0  0  0  0
 60 61  1  0  0  0  0
 61 62  2  0  0  0  0
 62 63  1  0  0  0  0
 63 64  2  0  0  0  0
 64 65  1  0  0  0  0
 61 65  1  0  0  0  0
 65 66  1  0  0  0  0
M  CHG  2  67   1  68  -1
M  END
>  <Name>
Cefmenoxime HCl

>  <CAS>
75738-58-8

>  <Formula>
C16H18ClN9O5S3

>  <MolWt>
1059.58 

>  <Bioactivity>
A cephalosporin antibiotic that is administered intravenously or intramuscularly. It is active against most common gram-positive and gram-negative microorganisms, is a potent inhibitor of Enterobacteriaceae, and is highly resistant to hydrolysis by beta-lactamases. The drug has a high rate of efficacy in many types of infection and to date no severe side effects have been noted.

>  <Pathways>
Microbiology & Virology

>  <Target>
Antibiotic

>  <Receptor>
PBPs, Fts1

>  <Reference>
1. Tsuchiya K, et al. Antimicrob Agents Chemother. 1981 Jan;19(1):56-65. 

$$$$
T0181
  Mrv1561503291623562D          

 32 35  0  0  0  0            999 V2000
    5.9746    4.3611    0.0000 C   0  0  0  0  0  0  0  0  0  0  0  0
    6.0341    3.5382    0.0000 C   0  0  0  0  0  0  0  0  0  0  0  0
    5.3513    3.0752    0.0000 O   0  0  0  0  0  0  0  0  0  0  0  0
    5.4108    2.2524    0.0000 C   0  0  0  0  0  0  0  0  0  0  0  0
    6.1532    1.8925    0.0000 O   0  0  0  0  0  0  0  0  0  0  0  0
    4.7280    1.7894    0.0000 O   0  0  0  0  0  0  0  0  0  0  0  0
    4.7875    0.9666    0.0000 C   0  0  0  0  0  0  0  0  0  0  0  0
    5.0168    0.1741    0.0000 C   0  0  0  0  0  0  0  0  0  0  0  0
    4.3340   -0.2889    0.0000 C   0  0  0  0  0  0  0  0  0  0  0  0
    3.6826    0.2174    0.0000 C   0  0  0  0  0  0  0  0  0  0  0  0
    3.9629    0.9934    0.0000 C   0  0  0  0  0  0  0  0  0  0  0  0
    3.4311    1.6241    0.0000 C   0  0  0  0  0  0  0  0  0  0  0  0
    2.6190    1.4789    0.0000 C   0  0  0  0  0  0  0  0  0  0  0  0
    2.3387    0.7029    0.0000 C   0  0  0  0  0  0  0  0  0  0  0  0
    2.8705    0.0722    0.0000 C   0  0  0  0  0  0  0  0  0  0  0  0
    2.5902   -0.7037    0.0000 C   0  0  0  0  0  0  0  0  0  0  0  0
    1.7781   -0.8489    0.0000 C   0  0  0  0  0  0  0  0  0  0  0  0
    1.2463   -0.2182    0.0000 C   0  0  0  0  0  0  0  0  0  0  0  0
    0.4342   -0.3634    0.0000 C   0  0  0  0  0  0  0  0  0  0  0  0
   -0.0976    0.2673    0.0000 C   0  0  0  0  0  0  0  0  0  0  0  0
   -0.9098    0.1221    0.0000 O   0  0  0  0  0  0  0  0  0  0  0  0
    0.1827    1.0432    0.0000 C   0  0  0  0  0  0  0  0  0  0  0  0
    0.9948    1.1884    0.0000 C   0  0  0  0  0  0  0  0  0  0  0  0
    1.5266    0.5577    0.0000 C   0  0  0  0  0  0  0  0  0  0  0  0
    1.8069    1.3336    0.0000 C   0  0  0  0  0  0  0  0  0  0  0  0
    2.0872    2.1096    0.0000 O   0  0  0  0  0  0  0  0  0  0  0  0
    4.3228    1.7357    0.0000 C   0  0  0  0  0  0  0  0  0  0  0  0
    5.5996    1.1118    0.0000 C   0  0  0  0  0  0  0  0  0  0  0  0
    6.2825    1.5747    0.0000 O   0  0  0  0  0  0  0  0  0  0  0  0
    6.1315    0.4811    0.0000 O   0  0  0  0  0  0  0  0  0  0  0  0
    6.9436    0.6263    0.0000 C   0  0  0  0  0  0  0  0  0  0  0  0
    7.4754   -0.0044    0.0000 Cl  0  0  0  0  0  0  0  0  0  0  0  0
  1  2  1  0  0  0  0
  2  3  1  0  0  0  0
  3  4  1  0  0  0  0
  4  5  2  0  0  0  0
  4  6  1  0  0  0  0
  6  7  1  0  0  0  0
  7  8  1  0  0  0  0
  8  9  1  0  0  0  0
  9 10  1  0  0  0  0
 10 11  1  0  0  0  0
  7 11  1  0  0  0  0
 11 12  1  0  0  0  0
 12 13  1  0  0  0  0
 13 14  1  0  0  0  0
 14 15  1  0  0  0  0
 10 15  1  0  0  0  0
 15 16  1  0  0  0  0
 16 17  1  0  0  0  0
 17 18  1  0  0  0  0
 18 19  2  0  0  0  0
 19 20  1  0  0  0  0
 20 21  2  0  0  0  0
 20 22  1  0  0  0  0
 22 23  2  0  0  0  0
 23 24  1  0  0  0  0
 14 24  1  0  0  0  0
 18 24  1  0  0  0  0
 24 25  1  0  0  0  0
 13 26  1  0  0  0  0
 11 27  1  0  0  0  0
  7 28  1  0  0  0  0
 28 29  2  0  0  0  0
 28 30  1  0  0  0  0
 30 31  1  0  0  0  0
 31 32  1  0  0  0  0
M  END
>  <Name>
Loteprednol etabonate

>  <CAS>
82034-46-6

>  <Formula>
C24H31ClO7

>  <MolWt>
466.95 

>  <Bioactivity>
Loteprednol (as Loteprednol Etabonate) is a topical corticoid antiinflammatory. It is used in ophthalmic solution for the treatment of steroid responsive inflammatory conditions of the eye such as allergic conjunctivitis, uveitis, acne rosacea, superficial punctate keratitis, herpes zoster keratitis, iritis, cyclitis, and selected infective conjunctivitides. As a nasal spray, is used for the treatment and management of seasonal allergic rhinitis. 

>  <Pathways>
Endocrinology/ Hormones

>  <Target>
Glucocorticoid Receptor agonist

>  <Receptor>
Glucocorticoid receptor

>  <Reference>
1. Druzgala P, et al. J Steroid Biochem Mol Biol. 1991 Feb;38(2):149-54.

$$$$
471-53-4
  Mrv1561503291623562D          

 34 38  0  0  1  0            999 V2000
    2.3645    0.4125    0.0000 C   0  0  2  0  0  0  0  0  0  0  0  0
    2.7770    1.1270    0.0000 C   0  0  2  0  0  0  0  0  0  0  0  0
    3.6020    1.1270    0.0000 C   0  0  1  0  0  0  0  0  0  0  0  0
    4.0145    0.4125    0.0000 C   0  0  0  0  0  0  0  0  0  0  0  0
    3.6020   -0.3020    0.0000 C   0  0  0  0  0  0  0  0  0  0  0  0
    2.7770   -0.3020    0.0000 C   0  0  0  0  0  0  0  0  0  0  0  0
    2.3645   -1.0164    0.0000 O   0  0  0  0  0  0  0  0  0  0  0  0
    4.8395    0.4125    0.0000 C   0  0  1  0  0  0  0  0  0  0  0  0
    5.2520    1.1270    0.0000 C   0  0  1  0  0  0  0  0  0  0  0  0
    6.0770    1.1270    0.0000 C   0  0  0  0  0  0  0  0  0  0  0  0
    6.4895    0.4125    0.0000 C   0  0  0  0  0  0  0  0  0  0  0  0
    6.0770   -0.3020    0.0000 C   0  0  1  0  0  0  0  0  0  0  0  0
    5.2520   -0.3020    0.0000 C   0  0  0  0  0  0  0  0  0  0  0  0
    6.7766   -0.7392    0.0000 C   0  0  0  0  0  0  0  0  0  0  0  0
    7.5050   -0.3518    0.0000 O   0  0  0  0  0  0  0  0  0  0  0  0
    6.7478   -1.5637    0.0000 O   0  0  0  0  0  0  0  0  0  0  0  0
    6.1058   -1.1265    0.0000 C   0  0  0  0  0  0  0  0  0  0  0  0
    5.6645    1.8414    0.0000 C   0  0  0  0  0  0  0  0  0  0  0  0
    4.8395    1.8414    0.0000 C   0  0  0  0  0  0  0  0  0  0  0  0
    4.0145    1.8414    0.0000 C   0  0  0  0  0  0  0  0  0  0  0  0
    3.1895    1.8414    0.0000 C   0  0  0  0  0  0  0  0  0  0  0  0
    2.3645    1.8414    0.0000 C   0  0  0  0  0  0  0  0  0  0  0  0
    1.5395    1.8414    0.0000 C   0  0  0  0  0  0  0  0  0  0  0  0
    1.1270    1.1270    0.0000 C   0  0  2  0  0  0  0  0  0  0  0  0
    1.5395    0.4125    0.0000 C   0  0  2  0  0  0  0  0  0  0  0  0
    1.1270   -0.3020    0.0000 C   0  0  0  0  0  0  0  0  0  0  0  0
    0.3020   -0.3020    0.0000 C   0  0  0  0  0  0  0  0  0  0  0  0
   -0.1105    0.4125    0.0000 C   0  0  1  0  0  0  0  0  0  0  0  0
    0.3020    1.1270    0.0000 C   0  0  0  0  0  0  0  0  0  0  0  0
   -0.3977    1.5642    0.0000 C   0  0  0  0  0  0  0  0  0  0  0  0
    0.2732    1.9515    0.0000 C   0  0  0  0  0  0  0  0  0  0  0  0
   -0.9355    0.4125    0.0000 O   0  0  0  0  0  0  0  0  0  0  0  0
    1.9520   -0.3020    0.0000 C   0  0  0  0  0  0  0  0  0  0  0  0
    2.6907    1.9475    0.0000 C   0  0  0  0  0  0  0  0  0  0  0  0
  1  2  1  0  0  0  0
  2  3  1  0  0  0  0
  3  4  1  0  0  0  0
  4  5  2  0  0  0  0
  5  6  1  0  0  0  0
  1  6  1  6  0  0  0
  6  7  2  0  0  0  0
  4  8  1  0  0  0  0
  8  9  1  0  0  0  0
  9 10  1  0  0  0  0
 10 11  1  0  0  0  0
 11 12  1  0  0  0  0
 12 13  1  0  0  0  0
  8 13  1  1  0  0  0
 12 14  1  6  0  0  0
 14 15  1  0  0  0  0
 14 16  2  0  0  0  0
 12 17  1  1  0  0  0
  9 18  1  6  0  0  0
  9 19  1  0  0  0  0
 19 20  1  0  0  0  0
  3 20  1  0  0  0  0
  3 21  1  1  0  0  0
  2 22  1  0  0  0  0
 22 23  1  0  0  0  0
 24 23  1  6  0  0  0
 24 25  1  0  0  0  0
  1 25  1  0  0  0  0
 25 26  1  0  0  0  0
 26 27  1  0  0  0  0
 27 28  1  0  0  0  0
 28 29  1  0  0  0  0
 24 29  1  0  0  0  0
 29 30  1  0  0  0  0
 29 31  1  0  0  0  0
 28 32  1  6  0  0  0
 25 33  1  6  0  0  0
  2 34  1  6  0  0  0
M  END
>  <Name>
Enoxolone

>  <CAS>
471-53-4

>  <Formula>
C30H46O4

>  <MolWt>
470.68 

>  <Bioactivity>
Enoximone is a selective phosphodiesterase inhibitor with vasodilating and positive inotropic activity that does not cause changes in myocardial oxygen consumption. It is used in patients with congestive heart failure. Trials were halted in the U.S., but the drug is used in various countries.

>  <Pathways>
Metabolism

>  <Target>
Dehydrogenase inhibitor

>  <Receptor>
DHO

>  <Reference>
1. Boldt J, et al. Expert Opin Pharmacother. 2007, 8(13):2135-47. 

$$$$
58-95-7
  Mrv1561503291623562D          

 34 35  0  0  0  0            999 V2000
    0.9626   -2.6447    0.0000 C   0  0  0  0  0  0  0  0  0  0  0  0
    0.2481   -3.0572    0.0000 C   0  0  0  0  0  0  0  0  0  0  0  0
   -0.2822   -3.6892    0.0000 O   0  0  0  0  0  0  0  0  0  0  0  0
   -1.0946   -3.5460    0.0000 C   0  0  0  0  0  0  0  0  0  0  0  0
   -1.6249   -4.1779    0.0000 C   0  0  0  0  0  0  0  0  0  0  0  0
   -2.4374   -4.0347    0.0000 C   0  0  0  0  0  0  0  0  0  0  0  0
   -2.7196   -3.2594    0.0000 C   0  0  0  0  0  0  0  0  0  0  0  0
   -2.1893   -2.6275    0.0000 C   0  0  0  0  0  0  0  0  0  0  0  0
   -1.3768   -2.7707    0.0000 C   0  0  0  0  0  0  0  0  0  0  0  0
   -0.8465   -2.1387    0.0000 C   0  0  0  0  0  0  0  0  0  0  0  0
   -0.0340   -2.2820    0.0000 C   0  0  0  0  0  0  0  0  0  0  0  0
   -2.4714   -1.8522    0.0000 C   0  0  0  0  0  0  0  0  0  0  0  0
   -3.5320   -3.1162    0.0000 O   0  0  0  0  0  0  0  0  0  0  0  0
   -3.8142   -2.3409    0.0000 C   0  0  0  0  0  0  0  0  0  0  0  0
   -4.6267   -2.1977    0.0000 C   0  0  0  0  0  0  0  0  0  0  0  0
   -3.2839   -1.7089    0.0000 O   0  0  0  0  0  0  0  0  0  0  0  0
   -2.9677   -4.6667    0.0000 C   0  0  0  0  0  0  0  0  0  0  0  0
   -1.3428   -4.9532    0.0000 C   0  0  0  0  0  0  0  0  0  0  0  0
    0.7784   -3.6892    0.0000 C   0  0  0  0  0  0  0  0  0  0  0  0
    1.6771   -3.0572    0.0000 C   0  0  0  0  0  0  0  0  0  0  0  0
    2.3915   -2.6447    0.0000 C   0  0  0  0  0  0  0  0  0  0  0  0
    3.1060   -3.0572    0.0000 C   0  0  0  0  0  0  0  0  0  0  0  0
    3.8205   -2.6447    0.0000 C   0  0  0  0  0  0  0  0  0  0  0  0
    4.5350   -3.0572    0.0000 C   0  0  0  0  0  0  0  0  0  0  0  0
    5.2494   -2.6447    0.0000 C   0  0  0  0  0  0  0  0  0  0  0  0
    5.9639   -3.0572    0.0000 C   0  0  0  0  0  0  0  0  0  0  0  0
    6.6784   -2.6447    0.0000 C   0  0  0  0  0  0  0  0  0  0  0  0
    7.3928   -3.0572    0.0000 C   0  0  0  0  0  0  0  0  0  0  0  0
    8.1073   -2.6447    0.0000 C   0  0  0  0  0  0  0  0  0  0  0  0
    8.8218   -3.0572    0.0000 C   0  0  0  0  0  0  0  0  0  0  0  0
    9.5363   -2.6447    0.0000 C   0  0  0  0  0  0  0  0  0  0  0  0
    8.8218   -3.8822    0.0000 C   0  0  0  0  0  0  0  0  0  0  0  0
    5.9639   -3.8822    0.0000 C   0  0  0  0  0  0  0  0  0  0  0  0
    3.1060   -3.8822    0.0000 C   0  0  0  0  0  0  0  0  0  0  0  0
  1  2  1  0  0  0  0
  2  3  1  0  0  0  0
  3  4  1  0  0  0  0
  4  5  2  0  0  0  0
  5  6  1  0  0  0  0
  6  7  2  0  0  0  0
  7  8  1  0  0  0  0
  8  9  2  0  0  0  0
  4  9  1  0  0  0  0
  9 10  1  0  0  0  0
 10 11  1  0  0  0  0
  2 11  1  0  0  0  0
  8 12  1  0  0  0  0
  7 13  1  0  0  0  0
 13 14  1  0  0  0  0
 14 15  1  0  0  0  0
 14 16  2  0  0  0  0
  6 17  1  0  0  0  0
  5 18  1  0  0  0  0
  2 19  1  0  0  0  0
  1 20  1  0  0  0  0
 20 21  1  0  0  0  0
 21 22  1  0  0  0  0
 22 23  1  0  0  0  0
 23 24  1  0  0  0  0
 24 25  1  0  0  0  0
 25 26  1  0  0  0  0
 26 27  1  0  0  0  0
 27 28  1  0  0  0  0
 28 29  1  0  0  0  0
 29 30  1  0  0  0  0
 30 31  1  0  0  0  0
 30 32  1  0  0  0  0
 26 33  1  0  0  0  0
 22 34  1  0  0  0  0
M  END
>  <Name>
Combinal E

>  <CAS>
58-95-7

>  <Formula>
C31H52O3

>  <MolWt>
472.76 

>  <Bioactivity>
A natural tocopherol and one of the most potent antioxidant tocopherols. It exhibits antioxidant activity by virtue of the phenolic hydrogen on the 2H-1-benzopyran-6-ol nucleus. It has four methyl groups on the 6-chromanol nucleus. The natural d form of alpha-tocopherol is more active than its synthetic dl-alpha-tocopherol racemic mixture.


>  <Pathways>
Vitamin

>  <Target>
VE

>  <Receptor>
VE

>  <Reference>
1. Beijersbergen van Henegouwen GM, et al. J Photochem Photobiol B. 1995 Jul;29(1):45-51.

$$$$
141625-93-6
  Mrv1561503291623562D          

 41 41  0  0  0  0            999 V2000
    0.4125    0.0000    0.0000 H   0  3  0  0  0  0  0  0  0  0  0  0
    5.1473    1.2291    0.0000 C   0  0  0  0  0  0  0  0  0  0  0  0
    4.3627    1.4841    0.0000 C   0  0  0  0  0  0  0  0  0  0  0  0
    3.7496    0.9320    0.0000 N   0  0  0  0  0  0  0  0  0  0  0  0
    2.9650    1.1870    0.0000 S   0  0  0  0  0  0  0  0  0  0  0  0
    2.1804    1.4419    0.0000 O   0  0  0  0  0  0  0  0  0  0  0  0
    2.7100    0.4023    0.0000 O   0  0  0  0  0  0  0  0  0  0  0  0
    3.2199    1.9716    0.0000 C   0  0  0  0  0  0  0  0  0  0  0  0
    4.1912    2.2910    0.0000 C   0  0  0  0  0  0  0  0  0  0  0  0
    4.8043    2.8431    0.0000 C   0  0  0  0  0  0  0  0  0  0  0  0
    5.5889    2.5881    0.0000 C   0  0  0  0  0  0  0  0  0  0  0  0
    5.7604    1.7812    0.0000 C   0  0  0  0  0  0  0  0  0  0  0  0
    6.5809    1.6949    0.0000 C   0  0  0  0  0  0  0  0  0  0  0  0
    6.9164    2.4486    0.0000 C   0  0  0  0  0  0  0  0  0  0  0  0
    6.3034    3.0006    0.0000 O   0  0  0  0  0  0  0  0  0  0  0  0
    7.7234    2.6201    0.0000 C   0  0  0  0  0  0  0  0  0  0  0  0
    7.9784    3.4047    0.0000 C   0  0  0  0  0  0  0  0  0  0  0  0
    7.4263    4.0178    0.0000 C   0  0  0  0  0  0  0  0  0  0  0  0
    7.6813    4.8025    0.0000 C   0  0  0  0  0  0  0  0  0  0  0  0
    6.9934    0.9804    0.0000 C   0  0  0  0  0  0  0  0  0  0  0  0
    7.8184    0.9804    0.0000 O   0  0  0  0  0  0  0  0  0  0  0  0
    6.5809    0.2660    0.0000 C   0  0  0  0  0  0  0  0  0  0  0  0
    6.9934   -0.4485    0.0000 C   0  0  0  0  0  0  0  0  0  0  0  0
    6.5809   -1.1630    0.0000 C   0  0  0  0  0  0  0  0  0  0  0  0
    5.7559   -1.1630    0.0000 C   0  0  0  0  0  0  0  0  0  0  0  0
    5.3434   -1.8774    0.0000 O   0  0  0  0  0  0  0  0  0  0  0  0
    4.5184   -1.8774    0.0000 C   0  0  0  0  0  0  0  0  0  0  0  0
    4.1059   -2.5919    0.0000 C   0  0  0  0  0  0  0  0  0  0  0  0
    4.5184   -3.3064    0.0000 C   0  0  0  0  0  0  0  0  0  0  0  0
    5.3434   -3.3064    0.0000 N   0  0  0  0  0  0  0  0  0  0  0  0
    5.7559   -4.0209    0.0000 C   0  0  0  0  0  0  0  0  0  0  0  0
    6.5809   -4.0209    0.0000 C   0  0  0  0  0  0  0  0  0  0  0  0
    6.9934   -4.7353    0.0000 C   0  0  0  0  0  0  0  0  0  0  0  0
    7.8184   -4.7353    0.0000 C   0  0  0  0  0  0  0  0  0  0  0  0
    5.7559   -2.5919    0.0000 C   0  0  0  0  0  0  0  0  0  0  0  0
    6.5809   -2.5919    0.0000 C   0  0  0  0  0  0  0  0  0  0  0  0
    6.9934   -1.8774    0.0000 C   0  0  0  0  0  0  0  0  0  0  0  0
    7.8184   -1.8774    0.0000 C   0  0  0  0  0  0  0  0  0  0  0  0
    5.3434   -0.4485    0.0000 C   0  0  0  0  0  0  0  0  0  0  0  0
    5.7559    0.2660    0.0000 C   0  0  0  0  0  0  0  0  0  0  0  0
   -0.4125    0.0000    0.0000 Cl  0  5  0  0  0  0  0  0  0  0  0  0
  2  3  2  0  0  0  0
  3  4  1  0  0  0  0
  4  5  1  0  0  0  0
  5  6  2  0  0  0  0
  5  7  2  0  0  0  0
  5  8  1  0  0  0  0
  3  9  1  0  0  0  0
  9 10  2  0  0  0  0
 10 11  1  0  0  0  0
 11 12  2  0  0  0  0
  2 12  1  0  0  0  0
 12 13  1  0  0  0  0
 13 14  2  0  0  0  0
 14 15  1  0  0  0  0
 11 15  1  0  0  0  0
 14 16  1  0  0  0  0
 16 17  1  0  0  0  0
 17 18  1  0  0  0  0
 18 19  1  0  0  0  0
 13 20  1  0  0  0  0
 20 21  2  0  0  0  0
 20 22  1  0  0  0  0
 22 23  2  0  0  0  0
 23 24  1  0  0  0  0
 24 25  2  0  0  0  0
 25 26  1  0  0  0  0
 26 27  1  0  0  0  0
 27 28  1  0  0  0  0
 28 29  1  0  0  0  0
 29 30  1  0  0  0  0
 30 31  1  0  0  0  0
 31 32  1  0  0  0  0
 32 33  1  0  0  0  0
 33 34  1  0  0  0  0
 30 35  1  0  0  0  0
 35 36  1  0  0  0  0
 36 37  1  0  0  0  0
 37 38  1  0  0  0  0
 25 39  1  0  0  0  0
 39 40  2  0  0  0  0
 22 40  1  0  0  0  0
M  CHG  2   1   1  41  -1
M  END
>  <Name>
Dronedarone HCl

>  <CAS>
141625-93-6

>  <Formula>
C31H44N2O5S.HCl

>  <MolWt>
593.22 

>  <Bioactivity>
Dronedarone HCL is an amiodarone analogue which has been shown an effective and promising treatment for Atrial fibrillation 

>  <Pathways>
Membrane Transporter/Ion Channel

>  <Target>
Potassium Channel inhibitor ;Sodium Channel inhibitor;Adrenergic Receptor antagonist ; Calcium Channel inhibitor

>  <Receptor>
Potassium Channel ;Sodium channel ;Adrenergic receptor;Calcium Channel

>  <Reference>
1. Iwamoto T, et al. Cardiovasc Hematol Disord Drug Targets. 2007 Sep;7(3):188-98. 

$$$$
26095-59-0
  Mrv1561503291623562D          

 36 36  0  0  0  0            999 V2000
    2.1584    2.4782    0.0000 C   0  0  0  0  0  0  0  0  0  0  0  0
    2.8728    2.0657    0.0000 C   0  0  0  0  0  0  0  0  0  0  0  0
    2.8728    1.2407    0.0000 C   0  0  0  0  0  0  0  0  0  0  0  0
    2.1584    0.8282    0.0000 C   0  0  0  0  0  0  0  0  0  0  0  0
    1.4439    1.2407    0.0000 C   0  0  0  0  0  0  0  0  0  0  0  0
    1.4439    2.0657    0.0000 C   0  0  0  0  0  0  0  0  0  0  0  0
    0.7294    2.4782    0.0000 O   0  0  0  0  0  0  0  0  0  0  0  0
    0.7294    3.3032    0.0000 C   0  0  0  0  0  0  0  0  0  0  0  0
    1.4439    3.7157    0.0000 C   0  0  0  0  0  0  0  0  0  0  0  0
    2.1584    3.3032    0.0000 C   0  0  0  0  0  0  0  0  0  0  0  0
    2.8728    3.7157    0.0000 C   0  0  0  0  0  0  0  0  0  0  0  0
    3.5873    3.3032    0.0000 C   0  0  0  0  0  0  0  0  0  0  0  0
    4.3018    3.7157    0.0000 C   0  0  0  0  0  0  0  0  0  0  0  0
    5.0162    3.3032    0.0000 C   0  0  0  0  0  0  0  0  0  0  0  0
    5.7307    3.7157    0.0000 C   0  0  0  0  0  0  0  0  0  0  0  0
    0.7294    0.8282    0.0000 C   0  0  0  0  0  0  0  0  0  0  0  0
    0.7294    0.0032    0.0000 N   0  0  0  0  0  0  0  0  0  0  0  0
    0.0149   -0.4093    0.0000 C   0  0  0  0  0  0  0  0  0  0  0  0
    0.0149   -1.2343    0.0000 C   0  0  0  0  0  0  0  0  0  0  0  0
   -0.6995   -1.6468    0.0000 C   0  0  0  0  0  0  0  0  0  0  0  0
   -1.4140   -1.2343    0.0000 C   0  0  0  0  0  0  0  0  0  0  0  0
   -1.4140   -0.4093    0.0000 C   0  0  0  0  0  0  0  0  0  0  0  0
   -0.6995    0.0032    0.0000 C   0  0  0  0  0  0  0  0  0  0  0  0
   -2.1285   -1.6468    0.0000 C   0  0  0  0  0  0  0  0  0  0  0  0
   -2.1285   -2.4718    0.0000 O   0  0  0  0  0  0  0  0  0  0  0  0
   -2.8429   -2.8843    0.0000 C   0  0  0  0  0  0  0  0  0  0  0  0
   -2.8429   -3.7093    0.0000 C   0  0  0  0  0  0  0  0  0  0  0  0
   -3.5574   -4.1218    0.0000 N   0  3  0  0  0  0  0  0  0  0  0  0
   -4.2719   -4.5343    0.0000 C   0  0  0  0  0  0  0  0  0  0  0  0
   -4.2719   -5.3593    0.0000 C   0  0  0  0  0  0  0  0  0  0  0  0
   -3.9699   -3.4074    0.0000 C   0  0  0  0  0  0  0  0  0  0  0  0
   -4.7949   -3.4074    0.0000 C   0  0  0  0  0  0  0  0  0  0  0  0
   -3.1449   -4.8363    0.0000 C   0  0  0  0  0  0  0  0  0  0  0  0
   -2.8429   -1.2343    0.0000 O   0  0  0  0  0  0  0  0  0  0  0  0
    0.0149    1.2407    0.0000 O   0  0  0  0  0  0  0  0  0  0  0  0
    8.0879    0.0000    0.0000 Br  0  5  0  0  0  0  0  0  0  0  0  0
  1  2  2  0  0  0  0
  2  3  1  0  0  0  0
  3  4  2  0  0  0  0
  4  5  1  0  0  0  0
  5  6  2  0  0  0  0
  1  6  1  0  0  0  0
  6  7  1  0  0  0  0
  7  8  1  0  0  0  0
  8  9  1  0  0  0  0
  9 10  1  0  0  0  0
 10 11  1  0  0  0  0
 11 12  1  0  0  0  0
 12 13  1  0  0  0  0
 13 14  1  0  0  0  0
 14 15  1  0  0  0  0
  5 16  1  0  0  0  0
 16 17  1  0  0  0  0
 17 18  1  0  0  0  0
 18 19  2  0  0  0  0
 19 20  1  0  0  0  0
 20 21  2  0  0  0  0
 21 22  1  0  0  0  0
 22 23  2  0  0  0  0
 18 23  1  0  0  0  0
 21 24  1  0  0  0  0
 24 25  1  0  0  0  0
 25 26  1  0  0  0  0
 26 27  1  0  0  0  0
 27 28  1  0  0  0  0
 28 29  1  0  0  0  0
 29 30  1  0  0  0  0
 28 31  1  0  0  0  0
 31 32  1  0  0  0  0
 28 33  1  0  0  0  0
 24 34  2  0  0  0  0
 16 35  2  0  0  0  0
M  CHG  2  28   1  36  -1
M  END
>  <Name>
Otilonium bromide

>  <CAS>
26095-59-0

>  <Formula>
C29H43BrN2O4

>  <MolWt>
563.57 

>  <Bioactivity>
Otilonium bromide is an antimuscarinic.

>  <Pathways>
Membrane Transporter/Ion Channel; Neuroscience

>  <Target>
Calcium Channel inhibitor;AChR antagonist

>  <Receptor>
Calcium Channel;Muscarinic AChR

>  <Reference>
1. Martínez-Cutillas M, et al. Neurogastroenterol Motil. 2013 Dec; 25(12):e803-12.

$$$$
286930-03-8
  Mrv1561503291623562D          

 38 38  0  0  0  0            999 V2000
    1.9937    2.5006    0.0000 C   0  0  0  0  0  0  0  0  0  0  0  0
    1.5812    1.7862    0.0000 C   0  0  0  0  0  0  0  0  0  0  0  0
    1.9937    1.0717    0.0000 C   0  0  0  0  0  0  0  0  0  0  0  0
    0.7562    1.7862    0.0000 C   0  0  0  0  0  0  0  0  0  0  0  0
    0.3437    2.5006    0.0000 O   0  0  0  0  0  0  0  0  0  0  0  0
    0.3437    1.0717    0.0000 O   0  0  0  0  0  0  0  0  0  0  0  0
   -0.4813    1.0717    0.0000 C   0  0  0  0  0  0  0  0  0  0  0  0
   -0.8937    0.3572    0.0000 C   0  0  0  0  0  0  0  0  0  0  0  0
   -1.7187    0.3572    0.0000 C   0  0  0  0  0  0  0  0  0  0  0  0
   -2.1313    1.0717    0.0000 C   0  0  0  0  0  0  0  0  0  0  0  0
   -1.7188    1.7862    0.0000 C   0  0  0  0  0  0  0  0  0  0  0  0
   -0.8938    1.7862    0.0000 C   0  0  0  0  0  0  0  0  0  0  0  0
   -2.9562    1.0717    0.0000 C   0  0  0  0  0  0  0  0  0  0  0  0
   -3.3688    1.7862    0.0000 O   0  0  0  0  0  0  0  0  0  0  0  0
   -0.4812   -0.3572    0.0000 C   0  0  0  0  0  0  0  0  0  0  0  0
    0.3438   -0.3572    0.0000 C   0  0  0  0  0  0  0  0  0  0  0  0
    0.7563   -1.0717    0.0000 C   0  0  0  0  0  0  0  0  0  0  0  0
    1.5813   -1.0717    0.0000 N   0  0  0  0  0  0  0  0  0  0  0  0
    1.9938   -1.7862    0.0000 C   0  0  0  0  0  0  0  0  0  0  0  0
    2.8188   -1.7862    0.0000 C   0  0  0  0  0  0  0  0  0  0  0  0
    1.5813   -2.5006    0.0000 C   0  0  0  0  0  0  0  0  0  0  0  0
    1.9938   -0.3572    0.0000 C   0  0  0  0  0  0  0  0  0  0  0  0
    1.5813    0.3572    0.0000 C   0  0  0  0  0  0  0  0  0  0  0  0
    2.8188   -0.3572    0.0000 C   0  0  0  0  0  0  0  0  0  0  0  0
   -0.8937   -1.0717    0.0000 C   0  0  0  0  0  0  0  0  0  0  0  0
   -0.4813   -1.7862    0.0000 C   0  0  0  0  0  0  0  0  0  0  0  0
   -0.8938   -2.5006    0.0000 C   0  0  0  0  0  0  0  0  0  0  0  0
   -1.7188   -2.5006    0.0000 C   0  0  0  0  0  0  0  0  0  0  0  0
   -2.1312   -1.7862    0.0000 C   0  0  0  0  0  0  0  0  0  0  0  0
   -1.7187   -1.0717    0.0000 C   0  0  0  0  0  0  0  0  0  0  0  0
    6.6491    0.0000    0.0000 C   0  0  0  0  0  0  0  0  0  0  0  0
    5.8241    0.0000    0.0000 C   0  0  0  0  0  0  0  0  0  0  0  0
    5.4116   -0.7145    0.0000 C   0  0  0  0  0  0  0  0  0  0  0  0
    4.5866   -0.7145    0.0000 O   0  0  0  0  0  0  0  0  0  0  0  0
    5.8241   -1.4289    0.0000 O   0  5  0  0  0  0  0  0  0  0  0  0
    7.0616    0.7145    0.0000 C   0  0  0  0  0  0  0  0  0  0  0  0
    6.6491    1.4289    0.0000 O   0  0  0  0  0  0  0  0  0  0  0  0
    7.8866    0.7145    0.0000 O   0  5  0  0  0  0  0  0  0  0  0  0
  1  2  1  0  0  0  0
  2  3  1  0  0  0  0
  2  4  1  0  0  0  0
  4  5  2  0  0  0  0
  4  6  1  0  0  0  0
  6  7  1  0  0  0  0
  7  8  2  0  0  0  0
  8  9  1  0  0  0  0
  9 10  2  0  0  0  0
 10 11  1  0  0  0  0
 11 12  2  0  0  0  0
  7 12  1  0  0  0  0
 10 13  1  0  0  0  0
 13 14  1  0  0  0  0
  8 15  1  0  0  0  0
 15 16  1  0  0  0  0
 16 17  1  0  0  0  0
 17 18  1  0  0  0  0
 18 19  1  0  0  0  0
 19 20  1  0  0  0  0
 19 21  1  0  0  0  0
 18 22  1  0  0  0  0
 22 23  1  0  0  0  0
 22 24  1  0  0  0  0
 15 25  1  0  0  0  0
 25 26  2  0  0  0  0
 26 27  1  0  0  0  0
 27 28  2  0  0  0  0
 28 29  1  0  0  0  0
 29 30  2  0  0  0  0
 25 30  1  0  0  0  0
 31 32  2  0  0  0  0
 32 33  1  0  0  0  0
 33 34  2  0  0  0  0
 33 35  1  0  0  0  0
 31 36  1  4  0  0  0
 36 37  2  0  0  0  0
 36 38  1  0  0  0  0
M  CHG  2  35  -1  38  -1
M  END
>  <Name>
Fesoterodine fumarate

>  <CAS>
286930-03-8

>  <Formula>
C26H37NO3.C4H4O4

>  <MolWt>
527.65 

>  <Bioactivity>
Fesoterodine is an antimuscarinic prodrug for the treatment of overactive bladder syndrome. 

>  <Pathways>
Neuroscience

>  <Target>
AChR antagonist

>  <Receptor>
Muscarinic AChR

>  <Reference>
1. Malhotra B, et al. Curr Med Chem, 2009, 16(33), 4481-4489.

$$$$
T0188
  Mrv1561503291623562D          

 34 37  0  0  1  0            999 V2000
    3.9629    0.9934    0.0000 C   0  0  2  0  0  0  0  0  0  0  0  0
    3.6826    0.2174    0.0000 C   0  0  2  0  0  0  0  0  0  0  0  0
    2.8705    0.0722    0.0000 C   0  0  0  0  0  0  0  0  0  0  0  0
    2.3387    0.7029    0.0000 C   0  0  1  0  0  0  0  0  0  0  0  0
    1.8069    1.3336    0.0000 F   0  0  0  0  0  0  0  0  0  0  0  0
    1.5266    0.5577    0.0000 C   0  0  2  0  0  0  0  0  0  0  0  0
    1.2463   -0.2182    0.0000 C   0  0  0  0  0  0  0  0  0  0  0  0
    0.4342   -0.3634    0.0000 C   0  0  0  0  0  0  0  0  0  0  0  0
   -0.0976    0.2673    0.0000 C   0  0  0  0  0  0  0  0  0  0  0  0
   -0.9098    0.1221    0.0000 O   0  0  0  0  0  0  0  0  0  0  0  0
    0.1827    1.0432    0.0000 C   0  0  0  0  0  0  0  0  0  0  0  0
    0.9948    1.1884    0.0000 C   0  0  0  0  0  0  0  0  0  0  0  0
    1.7781   -0.8489    0.0000 C   0  0  1  0  0  0  0  0  0  0  0  0
    1.4978   -1.6248    0.0000 F   0  0  0  0  0  0  0  0  0  0  0  0
    2.5902   -0.7037    0.0000 C   0  0  0  0  0  0  0  0  0  0  0  0
    1.2973    1.3502    0.0000 C   0  0  0  0  0  0  0  0  0  0  0  0
    2.6190    1.4789    0.0000 C   0  0  1  0  0  0  0  0  0  0  0  0
    2.0872    2.1096    0.0000 O   0  0  0  0  0  0  0  0  0  0  0  0
    3.4311    1.6241    0.0000 C   0  0  0  0  0  0  0  0  0  0  0  0
    4.3340   -0.2889    0.0000 C   0  0  0  0  0  0  0  0  0  0  0  0
    5.0168    0.1741    0.0000 C   0  0  2  0  0  0  0  0  0  0  0  0
    4.7875    0.9666    0.0000 C   0  0  1  0  0  0  0  0  0  0  0  0
    5.5484    1.2854    0.0000 O   0  0  0  0  0  0  0  0  0  0  0  0
    6.2050    0.7859    0.0000 C   0  0  0  0  0  0  0  0  0  0  0  0
    6.1007   -0.0325    0.0000 O   0  0  0  0  0  0  0  0  0  0  0  0
    6.9659    1.1048    0.0000 C   0  0  0  0  0  0  0  0  0  0  0  0
    7.6225    0.6053    0.0000 C   0  0  0  0  0  0  0  0  0  0  0  0
    4.9089    1.7826    0.0000 C   0  0  0  0  0  0  0  0  0  0  0  0
    5.6763    2.0854    0.0000 S   0  0  0  0  0  0  0  0  0  0  0  0
    5.7977    2.9015    0.0000 C   0  0  0  0  0  0  0  0  0  0  0  0
    6.5651    3.2043    0.0000 F   0  0  0  0  0  0  0  0  0  0  0  0
    4.2629    2.2957    0.0000 O   0  0  0  0  0  0  0  0  0  0  0  0
    5.7927   -0.1062    0.0000 C   0  0  0  0  0  0  0  0  0  0  0  0
    4.3228    1.7357    0.0000 C   0  0  0  0  0  0  0  0  0  0  0  0
  1  2  1  0  0  0  0
  2  3  1  0  0  0  0
  3  4  1  0  0  0  0
  4  5  1  6  0  0  0
  4  6  1  0  0  0  0
  6  7  1  0  0  0  0
  7  8  2  0  0  0  0
  8  9  1  0  0  0  0
  9 10  2  0  0  0  0
  9 11  1  0  0  0  0
 11 12  2  0  0  0  0
  6 12  1  0  0  0  0
  7 13  1  0  0  0  0
 13 14  1  6  0  0  0
 13 15  1  0  0  0  0
  3 15  1  0  0  0  0
  6 16  1  1  0  0  0
  4 17  1  0  0  0  0
 17 18  1  1  0  0  0
 17 19  1  0  0  0  0
  1 19  1  0  0  0  0
  2 20  1  1  0  0  0
 20 21  1  0  0  0  0
 21 22  1  0  0  0  0
  1 22  1  0  0  0  0
 22 23  1  6  0  0  0
 23 24  1  0  0  0  0
 24 25  2  0  0  0  0
 24 26  1  0  0  0  0
 26 27  1  0  0  0  0
 22 28  1  1  0  0  0
 28 29  1  0  0  0  0
 29 30  1  0  0  0  0
 30 31  1  0  0  0  0
 28 32  2  0  0  0  0
 21 33  1  6  0  0  0
  1 34  1  1  0  0  0
M  END
>  <Name>
Fluticasone propionate

>  <CAS>
80474-14-2

>  <Formula>
C25H31F3O5S

>  <MolWt>
500.57 

>  <Bioactivity>
Fluticasone propionate, a medium-potency synthetic corticosteroid, is used topically to relieve inflammatory and pruritic symptoms of dermatoses and psoriasis, intranasally to manage symptoms of allergic and non-allergic rhinitis, and orally for the treatment of asthma. Fluticasone proprionate is marketed under several different brand names such as Flonase®. Fluticasone propionate is also available as a combination product of azelastine hydrochloride and fluticasone propionate called Dymista(TM). Dymista(TM) is indicated in patients over 12 years old for symptomatic relief of seasonal allergic rhinitis. 

>  <Pathways>
Endocrinology/ Hormones; Enzyme

>  <Target>
Mineralocorticoid receptor antabonist;Estrogen/Progestogen receptor agonist; Glucocorticoid Receptor agonist;PLA inhibitor

>  <Receptor>
Mineralocorticoid receptor;Estrogen/Progestogen receptor;Glucocorticoid receptor; Cytosolic PLA2

>  <Reference>
1. Andersson O, et al. J Allergy Clin Immunol. 1999 Apr;103(4):595-600. 

$$$$
T1559
  Mrv1561503291623562D          

 36 39  0  0  1  0            999 V2000
    0.0084   -4.0871    0.0000 C   0  0  2  0  0  0  0  0  0  0  0  0
   -0.4695   -3.4146    0.0000 C   0  0  2  0  0  0  0  0  0  0  0  0
   -1.2567   -3.6613    0.0000 C   0  0  2  0  0  0  0  0  0  0  0  0
   -1.8640   -3.1029    0.0000 C   0  0  1  0  0  0  0  0  0  0  0  0
   -1.6840   -2.2978    0.0000 C   0  0  2  0  0  0  0  0  0  0  0  0
   -2.2913   -1.7394    0.0000 C   0  0  2  0  0  0  0  0  0  0  0  0
   -3.0786   -1.9861    0.0000 C   0  0  0  0  0  0  0  0  0  0  0  0
   -3.6858   -1.4276    0.0000 C   0  0  0  0  0  0  0  0  0  0  0  0
   -3.5059   -0.6225    0.0000 C   0  0  0  0  0  0  0  0  0  0  0  0
   -4.1131   -0.0641    0.0000 O   0  0  0  0  0  0  0  0  0  0  0  0
   -2.7186   -0.3758    0.0000 C   0  0  0  0  0  0  0  0  0  0  0  0
   -2.1113   -0.9342    0.0000 C   0  0  0  0  0  0  0  0  0  0  0  0
   -3.2585   -2.7912    0.0000 C   0  0  0  0  0  0  0  0  0  0  0  0
   -2.6512   -3.3496    0.0000 C   0  0  0  0  0  0  0  0  0  0  0  0
   -1.5041   -1.4926    0.0000 C   0  0  0  0  0  0  0  0  0  0  0  0
   -1.0652   -1.7522    0.0000 F   0  0  0  0  0  0  0  0  0  0  0  0
   -0.8968   -2.0511    0.0000 C   0  0  2  0  0  0  0  0  0  0  0  0
   -0.2895   -2.6095    0.0000 C   0  0  0  0  0  0  0  0  0  0  0  0
   -0.7168   -1.2459    0.0000 O   0  0  0  0  0  0  0  0  0  0  0  0
   -1.2654   -4.4863    0.0000 C   0  0  0  0  0  0  0  0  0  0  0  0
   -0.4834   -4.7494    0.0000 C   0  0  2  0  0  0  0  0  0  0  0  0
   -0.2367   -5.5367    0.0000 C   0  0  0  0  0  0  0  0  0  0  0  0
    0.3393   -3.2516    0.0000 C   0  0  0  0  0  0  0  0  0  0  0  0
    0.7229   -4.4996    0.0000 C   0  0  0  0  0  0  0  0  0  0  0  0
    1.4374   -4.0871    0.0000 C   0  0  0  0  0  0  0  0  0  0  0  0
    2.1519   -4.4996    0.0000 O   0  0  0  0  0  0  0  0  0  0  0  0
    2.8663   -4.0871    0.0000 C   0  0  0  0  0  0  0  0  0  0  0  0
    3.5808   -4.4996    0.0000 C   0  0  0  0  0  0  0  0  0  0  0  0
    4.2953   -4.0871    0.0000 C   0  0  0  0  0  0  0  0  0  0  0  0
    2.8663   -3.2621    0.0000 O   0  0  0  0  0  0  0  0  0  0  0  0
    0.7229   -5.3246    0.0000 O   0  0  0  0  0  0  0  0  0  0  0  0
    0.7314   -3.6897    0.0000 O   0  0  0  0  0  0  0  0  0  0  0  0
    0.7487   -2.8648    0.0000 C   0  0  0  0  0  0  0  0  0  0  0  0
    1.4716   -2.4674    0.0000 C   0  0  0  0  0  0  0  0  0  0  0  0
    1.4889   -1.6426    0.0000 C   0  0  0  0  0  0  0  0  0  0  0  0
    0.0430   -2.4375    0.0000 O   0  0  0  0  0  0  0  0  0  0  0  0
  1  2  1  0  0  0  0
  2  3  1  0  0  0  0
  3  4  1  0  0  0  0
  4  5  1  0  0  0  0
  5  6  1  0  0  0  0
  6  7  1  0  0  0  0
  7  8  2  0  0  0  0
  8  9  1  0  0  0  0
  9 10  2  0  0  0  0
  9 11  1  0  0  0  0
 11 12  2  0  0  0  0
  6 12  1  0  0  0  0
  7 13  1  0  0  0  0
 13 14  1  0  0  0  0
  4 14  1  6  0  0  0
  6 15  1  1  0  0  0
  5 16  1  6  0  0  0
  5 17  1  0  0  0  0
 17 18  1  0  0  0  0
  2 18  1  0  0  0  0
 17 19  1  1  0  0  0
  3 20  1  1  0  0  0
 20 21  1  0  0  0  0
  1 21  1  0  0  0  0
 21 22  1  1  0  0  0
  2 23  1  1  0  0  0
  1 24  1  1  0  0  0
 24 25  1  0  0  0  0
 25 26  1  0  0  0  0
 26 27  1  0  0  0  0
 27 28  1  0  0  0  0
 28 29  1  0  0  0  0
 27 30  2  0  0  0  0
 24 31  2  0  0  0  0
  1 32  1  6  0  0  0
 32 33  1  0  0  0  0
 33 34  1  0  0  0  0
 34 35  1  0  0  0  0
 33 36  2  0  0  0  0
M  END
>  <Name>
Betamethasone dipropionate

>  <CAS>
5593-20-4

>  <Formula>
C28H37FO7

>  <MolWt>
504.59 

>  <Bioactivity>
Betamethasone Dipropionate is a glucocorticoid steroid with anti-inflammatory and immunosuppressive abilities.

>  <Pathways>
Endocrinology/ Hormones

>  <Target>
Glucocorticoid Receptor inhibitor

>  <Receptor>
Glucocorticoid Receptor

>  <Reference>
1. Park JM, et al. J Am Acad Dermatol. 2013 Sep;69(3):492-3.

$$$$
58-32-2
  Mrv1561503291623562D          

 36 39  0  0  0  0            999 V2000
    3.5724   -4.5375    0.0000 C   0  0  0  0  0  0  0  0  0  0  0  0
    2.8579   -4.9500    0.0000 N   0  0  0  0  0  0  0  0  0  0  0  0
    2.8579   -5.7750    0.0000 C   0  0  0  0  0  0  0  0  0  0  0  0
    3.5724   -6.1875    0.0000 N   0  0  0  0  0  0  0  0  0  0  0  0
    3.5724   -7.0125    0.0000 C   0  0  0  0  0  0  0  0  0  0  0  0
    4.2868   -7.4250    0.0000 C   0  0  0  0  0  0  0  0  0  0  0  0
    5.0013   -7.0125    0.0000 N   0  0  0  0  0  0  0  0  0  0  0  0
    5.0013   -6.1875    0.0000 C   0  0  0  0  0  0  0  0  0  0  0  0
    5.7158   -5.7750    0.0000 C   0  0  0  0  0  0  0  0  0  0  0  0
    6.4302   -6.1875    0.0000 C   0  0  0  0  0  0  0  0  0  0  0  0
    6.4302   -7.0125    0.0000 C   0  0  0  0  0  0  0  0  0  0  0  0
    5.7158   -7.4250    0.0000 C   0  0  0  0  0  0  0  0  0  0  0  0
    4.2868   -8.2500    0.0000 N   0  0  0  0  0  0  0  0  0  0  0  0
    3.5724   -8.6625    0.0000 C   0  0  0  0  0  0  0  0  0  0  0  0
    2.8579   -8.2500    0.0000 N   0  0  0  0  0  0  0  0  0  0  0  0
    2.8579   -7.4250    0.0000 C   0  0  0  0  0  0  0  0  0  0  0  0
    2.1434   -7.0125    0.0000 C   0  0  0  0  0  0  0  0  0  0  0  0
    2.1434   -6.1875    0.0000 N   0  0  0  0  0  0  0  0  0  0  0  0
    1.4289   -7.4250    0.0000 N   0  0  0  0  0  0  0  0  0  0  0  0
    1.4289   -8.2500    0.0000 C   0  0  0  0  0  0  0  0  0  0  0  0
    0.7145   -8.6625    0.0000 C   0  0  0  0  0  0  0  0  0  0  0  0
   -0.0000   -8.2500    0.0000 C   0  0  0  0  0  0  0  0  0  0  0  0
   -0.0000   -7.4250    0.0000 C   0  0  0  0  0  0  0  0  0  0  0  0
    0.7145   -7.0125    0.0000 C   0  0  0  0  0  0  0  0  0  0  0  0
    3.5724   -9.4875    0.0000 N   0  0  0  0  0  0  0  0  0  0  0  0
    2.8579   -9.9000    0.0000 C   0  0  0  0  0  0  0  0  0  0  0  0
    2.8579  -10.7250    0.0000 C   0  0  0  0  0  0  0  0  0  0  0  0
    2.1434  -11.1375    0.0000 O   0  0  0  0  0  0  0  0  0  0  0  0
    4.2868   -9.9000    0.0000 C   0  0  0  0  0  0  0  0  0  0  0  0
    5.0013   -9.4875    0.0000 C   0  0  0  0  0  0  0  0  0  0  0  0
    5.7158   -9.9000    0.0000 O   0  0  0  0  0  0  0  0  0  0  0  0
    2.1434   -4.5375    0.0000 C   0  0  0  0  0  0  0  0  0  0  0  0
    2.1434   -3.7125    0.0000 C   0  0  0  0  0  0  0  0  0  0  0  0
    1.4289   -3.3000    0.0000 O   0  0  0  0  0  0  0  0  0  0  0  0
    3.5724   -3.7125    0.0000 C   0  0  0  0  0  0  0  0  0  0  0  0
    4.2868   -3.3000    0.0000 O   0  0  0  0  0  0  0  0  0  0  0  0
  1  2  1  0  0  0  0
  2  3  1  0  0  0  0
  3  4  2  0  0  0  0
  4  5  1  0  0  0  0
  5  6  2  0  0  0  0
  6  7  1  0  0  0  0
  7  8  1  0  0  0  0
  8  9  1  0  0  0  0
  9 10  1  0  0  0  0
 10 11  1  0  0  0  0
 11 12  1  0  0  0  0
  7 12  1  0  0  0  0
  6 13  1  0  0  0  0
 13 14  2  0  0  0  0
 14 15  1  0  0  0  0
 15 16  2  0  0  0  0
  5 16  1  0  0  0  0
 16 17  1  0  0  0  0
 17 18  2  0  0  0  0
  3 18  1  0  0  0  0
 17 19  1  0  0  0  0
 19 20  1  0  0  0  0
 20 21  1  0  0  0  0
 21 22  1  0  0  0  0
 22 23  1  0  0  0  0
 23 24  1  0  0  0  0
 19 24  1  0  0  0  0
 14 25  1  0  0  0  0
 25 26  1  0  0  0  0
 26 27  1  0  0  0  0
 27 28  1  0  0  0  0
 25 29  1  0  0  0  0
 29 30  1  0  0  0  0
 30 31  1  0  0  0  0
  2 32  1  0  0  0  0
 32 33  1  0  0  0  0
 33 34  1  0  0  0  0
  1 35  1  0  0  0  0
 35 36  1  0  0  0  0
M  END
>  <Name>
Dypyridamole

>  <CAS>
58-32-2

>  <Formula>
C24H40N8O4

>  <MolWt>
504.63 

>  <Bioactivity>
A phosphodiesterase inhibitor that blocks uptake and metabolism of adenosine by erythrocytes and vascular endothelial cells. Dipyridamole also potentiates the antiaggregating action of prostacyclin. (From AMA Drug Evaluations Annual, 1994, p752) 

>  <Pathways>
Metabolism

>  <Target>
PDE inhibitor

>  <Receptor>
ADA;PDE

>  <Reference>
1. Fujishige K, et al. J Biol Chem. 1999 Jun 25;274(26):18438-45.

$$$$
T0474
  Mrv1561503291623562D          

 60 62  0  0  1  0            999 V2000
   -2.1434   -1.2375    0.0000 C   0  0  2  0  0  0  0  0  0  0  0  0
   -2.8579   -1.6500    0.0000 C   0  0  1  0  0  0  0  0  0  0  0  0
   -2.8579   -2.4750    0.0000 O   0  0  0  0  0  0  0  0  0  0  0  0
   -3.5724   -2.8875    0.0000 C   0  0  2  0  0  0  0  0  0  0  0  0
   -2.8579   -3.3000    0.0000 C   0  0  2  0  0  0  0  0  0  0  0  0
   -2.8579   -4.1250    0.0000 C   0  0  2  0  0  0  0  0  0  0  0  0
   -2.1434   -4.5375    0.0000 O   0  0  0  0  0  0  0  0  0  0  0  0
   -2.1434   -5.3625    0.0000 C   0  0  1  0  0  0  0  0  0  0  0  0
   -1.4289   -5.7750    0.0000 C   0  0  0  0  0  0  0  0  0  0  0  0
   -1.4289   -6.6000    0.0000 C   0  0  2  0  0  0  0  0  0  0  0  0
   -2.1434   -7.0125    0.0000 C   0  0  1  0  0  0  0  0  0  0  0  0
   -2.1434   -7.8375    0.0000 O   0  0  0  0  0  0  0  0  0  0  0  0
   -2.8579   -6.6000    0.0000 C   0  0  1  0  0  0  0  0  0  0  0  0
   -2.8579   -5.7750    0.0000 O   0  0  0  0  0  0  0  0  0  0  0  0
   -3.5724   -7.0125    0.0000 C   0  0  0  0  0  0  0  0  0  0  0  0
   -0.6044   -6.6288    0.0000 O   0  0  0  0  0  0  0  0  0  0  0  0
   -0.1673   -5.9292    0.0000 C   0  0  0  0  0  0  0  0  0  0  0  0
   -0.9918   -7.2996    0.0000 C   0  0  0  0  0  0  0  0  0  0  0  0
   -3.5724   -4.5375    0.0000 C   0  0  2  0  0  0  0  0  0  0  0  0
   -4.2868   -4.1250    0.0000 C   0  0  0  0  0  0  0  0  0  0  0  0
   -5.0013   -4.5375    0.0000 O   0  0  0  0  0  0  0  0  0  0  0  0
   -5.7158   -4.1250    0.0000 C   0  0  1  0  0  0  0  0  0  0  0  0
   -5.7158   -3.3000    0.0000 C   0  0  1  0  0  0  0  0  0  0  0  0
   -6.2461   -3.9320    0.0000 C   0  0  0  0  0  0  0  0  0  0  0  0
   -6.5282   -3.4433    0.0000 O   0  0  0  0  0  0  0  0  0  0  0  0
   -6.4302   -2.8875    0.0000 C   0  0  1  0  0  0  0  0  0  0  0  0
   -6.4302   -2.0625    0.0000 C   0  0  2  0  0  0  0  0  0  0  0  0
   -5.7158   -1.6500    0.0000 C   0  0  0  0  0  0  0  0  0  0  0  0
   -5.0013   -2.0625    0.0000 C   0  0  1  0  0  0  0  0  0  0  0  0
   -4.2868   -1.6500    0.0000 C   0  0  0  0  0  0  0  0  0  0  0  0
   -3.5724   -2.0625    0.0000 C   0  0  2  0  0  0  0  0  0  0  0  0
   -3.1352   -1.3629    0.0000 C   0  0  0  0  0  0  0  0  0  0  0  0
   -3.8486   -1.4855    0.0000 O   0  0  0  0  0  0  0  0  0  0  0  0
   -5.0013   -2.8875    0.0000 C   0  0  0  0  0  0  0  0  0  0  0  0
   -5.7158   -0.8250    0.0000 O   0  0  0  0  0  0  0  0  0  0  0  0
   -7.1447   -1.6500    0.0000 C   0  0  0  0  0  0  0  0  0  0  0  0
   -7.1447   -3.3000    0.0000 O   0  0  0  0  0  0  0  0  0  0  0  0
   -6.4302   -4.5375    0.0000 C   0  0  0  0  0  0  0  0  0  0  0  0
   -6.4302   -5.3625    0.0000 C   0  0  0  0  0  0  0  0  0  0  0  0
   -4.2868   -3.3000    0.0000 O   0  0  0  0  0  0  0  0  0  0  0  0
   -3.5724   -5.3625    0.0000 C   0  0  0  0  0  0  0  0  0  0  0  0
   -2.1434   -2.8875    0.0000 C   0  0  0  0  0  0  0  0  0  0  0  0
   -3.5724   -1.2375    0.0000 O   0  0  0  0  0  0  0  0  0  0  0  0
   -3.5724   -0.4125    0.0000 C   0  0  1  0  0  0  0  0  0  0  0  0
   -4.2868    0.0000    0.0000 C   0  0  0  0  0  0  0  0  0  0  0  0
   -2.8579    0.0000    0.0000 C   0  0  0  0  0  0  0  0  0  0  0  0
   -2.1434   -0.4125    0.0000 C   0  0  1  0  0  0  0  0  0  0  0  0
   -1.4289    0.0000    0.0000 N   0  0  0  0  0  0  0  0  0  0  0  0
   -0.4670   -0.6600    0.0000 C   0  0  0  0  0  0  0  0  0  0  0  0
   -1.4289    0.8250    0.0000 C   0  0  0  0  0  0  0  0  0  0  0  0
   -1.4289   -1.6500    0.0000 O   0  0  0  0  0  0  0  0  0  0  0  0
   -0.7145   -1.2375    0.0000 C   0  0  0  0  0  0  0  0  0  0  0  0
   -0.0000   -1.6500    0.0000 C   0  0  0  0  0  0  0  0  0  0  0  0
    0.7145   -1.2375    0.0000 C   0  0  0  0  0  0  0  0  0  0  0  0
    1.4289   -1.6500    0.0000 C   0  0  0  0  0  0  0  0  0  0  0  0
    2.1434   -1.2375    0.0000 O   0  0  0  0  0  0  0  0  0  0  0  0
    2.8579   -1.6500    0.0000 C   0  0  0  0  0  0  0  0  0  0  0  0
    3.5724   -1.2375    0.0000 C   0  0  0  0  0  0  0  0  0  0  0  0
    1.4289   -2.4750    0.0000 O   0  0  0  0  0  0  0  0  0  0  0  0
   -0.7145   -0.4125    0.0000 O   0  0  0  0  0  0  0  0  0  0  0  0
  1  2  1  0  0  0  0
  2  3  1  1  0  0  0
  4  3  1  1  0  0  0
  4  5  1  0  0  0  0
  5  6  1  0  0  0  0
  6  7  1  6  0  0  0
  8  7  1  1  0  0  0
  8  9  1  0  0  0  0
  9 10  1  0  0  0  0
 10 11  1  0  0  0  0
 11 12  1  1  0  0  0
 11 13  1  0  0  0  0
 13 14  1  0  0  0  0
  8 14  1  0  0  0  0
 13 15  1  6  0  0  0
 10 16  1  1  0  0  0
 16 17  1  0  0  0  0
 10 18  1  6  0  0  0
  6 19  1  0  0  0  0
 19 20  1  0  0  0  0
 20 21  1  0  0  0  0
 21 22  1  0  0  0  0
 22 23  1  0  0  0  0
 23 24  1  6  0  0  0
 23 25  1  1  0  0  0
 23 26  1  0  0  0  0
 26 27  1  0  0  0  0
 27 28  1  0  0  0  0
 28 29  1  0  0  0  0
 29 30  1  0  0  0  0
 30 31  1  0  0  0  0
  4 31  1  0  0  0  0
 31 32  1  6  0  0  0
 31 33  1  1  0  0  0
 29 34  1  1  0  0  0
 28 35  2  0  0  0  0
 27 36  1  1  0  0  0
 26 37  1  6  0  0  0
 22 38  1  6  0  0  0
 38 39  1  0  0  0  0
 20 40  2  0  0  0  0
 19 41  1  1  0  0  0
  5 42  1  1  0  0  0
  2 43  1  0  0  0  0
 43 44  1  0  0  0  0
 44 45  1  1  0  0  0
 44 46  1  0  0  0  0
 46 47  1  0  0  0  0
  1 47  1  0  0  0  0
 47 48  1  1  0  0  0
 48 49  1  0  0  0  0
 48 50  1  0  0  0  0
  1 51  1  6  0  0  0
 51 52  1  0  0  0  0
 52 53  1  0  0  0  0
 53 54  1  0  0  0  0
 54 55  1  0  0  0  0
 55 56  1  0  0  0  0
 56 57  1  0  0  0  0
 57 58  1  0  0  0  0
 55 59  2  0  0  0  0
 52 60  2  0  0  0  0
M  END
>  <Name>
Erythromycin ethylsuccinate

>  <CAS>
1264-62-6

>  <Formula>
C43H75NO16

>  <MolWt>
862.05 

>  <Bioactivity>
Erythromycin Ethylsuccinate, an oral macrolide antibiotic produced by Streptomyces erythreus, reversibly binds to the 50S ribosome of bacteria, and inhibits protein synthesis.

>  <Pathways>
Microbiology & Virology

>  <Target>
Antibacterial

>  <Receptor>
50S ribosomal protein

>  <Reference>
1. Halling SM, Jensen AE. BMC Microbiol. 2006 Oct 2;6:84.

$$$$
T1011
  Mrv1561503291623562D          

 49 55  0  0  1  0            999 V2000
    1.4289   -7.4250    0.0000 C   0  0  2  0  0  0  0  0  0  0  0  0
    0.8769   -6.8119    0.0000 C   0  0  0  0  0  0  0  0  0  0  0  0
    0.0699   -6.9834    0.0000 C   0  0  0  0  0  0  0  0  0  0  0  0
   -0.4821   -6.3703    0.0000 C   0  0  0  0  0  0  0  0  0  0  0  0
   -0.2272   -5.5857    0.0000 C   0  0  0  0  0  0  0  0  0  0  0  0
   -0.7792   -4.9726    0.0000 Cl  0  0  0  0  0  0  0  0  0  0  0  0
    0.5798   -5.4142    0.0000 C   0  0  0  0  0  0  0  0  0  0  0  0
    1.1318   -6.0273    0.0000 C   0  0  0  0  0  0  0  0  0  0  0  0
   -0.1850   -7.7681    0.0000 Cl  0  0  0  0  0  0  0  0  0  0  0  0
    2.0964   -7.9099    0.0000 O   0  0  0  0  0  0  0  0  0  0  0  0
    1.8414   -8.6945    0.0000 C   0  0  1  0  0  0  0  0  0  0  0  0
    2.3264   -9.3620    0.0000 C   0  0  0  0  0  0  0  0  0  0  0  0
    3.1468   -9.2757    0.0000 O   0  0  0  0  0  0  0  0  0  0  0  0
    3.6318   -9.9432    0.0000 C   0  0  0  0  0  0  0  0  0  0  0  0
    4.4522   -9.8570    0.0000 C   0  0  0  0  0  0  0  0  0  0  0  0
    4.9372  -10.5244    0.0000 C   0  0  0  0  0  0  0  0  0  0  0  0
    4.6016  -11.2781    0.0000 C   0  0  0  0  0  0  0  0  0  0  0  0
    3.7811  -11.3643    0.0000 C   0  0  0  0  0  0  0  0  0  0  0  0
    3.2962  -10.6969    0.0000 C   0  0  0  0  0  0  0  0  0  0  0  0
    5.0865  -11.9455    0.0000 N   0  0  0  0  0  0  0  0  0  0  0  0
    5.9070  -11.8593    0.0000 C   0  0  0  0  0  0  0  0  0  0  0  0
    6.3919  -12.5267    0.0000 C   0  0  0  0  0  0  0  0  0  0  0  0
    6.0564  -13.2804    0.0000 N   0  0  0  0  0  0  0  0  0  0  0  0
    6.5413  -13.9478    0.0000 C   0  0  0  0  0  0  0  0  0  0  0  0
    7.3618  -13.8616    0.0000 C   0  0  0  0  0  0  0  0  0  0  0  0
    7.8467  -14.5290    0.0000 C   0  0  0  0  0  0  0  0  0  0  0  0
    7.5112  -15.2827    0.0000 C   0  0  0  0  0  0  0  0  0  0  0  0
    6.6907  -15.3689    0.0000 C   0  0  0  0  0  0  0  0  0  0  0  0
    6.2057  -14.7015    0.0000 C   0  0  0  0  0  0  0  0  0  0  0  0
    7.9961  -15.9501    0.0000 N   0  0  0  0  0  0  0  0  0  0  0  0
    8.8211  -15.9501    0.0000 C   0  0  0  0  0  0  0  0  0  0  0  0
    9.0760  -16.7348    0.0000 N   0  0  0  0  0  0  0  0  0  0  0  0
    9.8606  -16.9897    0.0000 C   0  0  0  0  0  0  0  0  0  0  0  0
   10.0322  -17.7967    0.0000 C   0  0  0  0  0  0  0  0  0  0  0  0
   10.8168  -18.0516    0.0000 C   0  0  0  0  0  0  0  0  0  0  0  0
   10.4737  -16.4377    0.0000 C   0  0  0  0  0  0  0  0  0  0  0  0
    8.4086  -17.2197    0.0000 N   0  0  0  0  0  0  0  0  0  0  0  0
    7.7411  -16.7348    0.0000 C   0  0  0  0  0  0  0  0  0  0  0  0
    9.3060  -15.2827    0.0000 O   0  0  0  0  0  0  0  0  0  0  0  0
    5.2359  -13.3666    0.0000 C   0  0  0  0  0  0  0  0  0  0  0  0
    4.7510  -12.6992    0.0000 C   0  0  0  0  0  0  0  0  0  0  0  0
    1.0164   -8.6945    0.0000 C   0  0  0  0  0  0  0  0  0  0  0  0
    0.7615   -7.9099    0.0000 O   0  0  0  0  0  0  0  0  0  0  0  0
    1.9810   -6.8119    0.0000 C   0  0  0  0  0  0  0  0  0  0  0  0
    2.7879   -6.9834    0.0000 N   0  0  0  0  0  0  0  0  0  0  0  0
    3.4010   -6.4314    0.0000 C   0  0  0  0  0  0  0  0  0  0  0  0
    4.1155   -6.8439    0.0000 N   0  0  0  0  0  0  0  0  0  0  0  0
    3.9440   -7.6509    0.0000 C   0  0  0  0  0  0  0  0  0  0  0  0
    3.1235   -7.7371    0.0000 N   0  0  0  0  0  0  0  0  0  0  0  0
  1  2  1  6  0  0  0
  2  3  2  0  0  0  0
  3  4  1  0  0  0  0
  4  5  2  0  0  0  0
  5  6  1  0  0  0  0
  5  7  1  0  0  0  0
  7  8  2  0  0  0  0
  2  8  1  0  0  0  0
  3  9  1  0  0  0  0
  1 10  1  0  0  0  0
 10 11  1  0  0  0  0
 11 12  1  1  0  0  0
 12 13  1  0  0  0  0
 13 14  1  0  0  0  0
 14 15  2  0  0  0  0
 15 16  1  0  0  0  0
 16 17  2  0  0  0  0
 17 18  1  0  0  0  0
 18 19  2  0  0  0  0
 14 19  1  0  0  0  0
 17 20  1  0  0  0  0
 20 21  1  0  0  0  0
 21 22  1  0  0  0  0
 22 23  1  0  0  0  0
 23 24  1  0  0  0  0
 24 25  2  0  0  0  0
 25 26  1  0  0  0  0
 26 27  2  0  0  0  0
 27 28  1  0  0  0  0
 28 29  2  0  0  0  0
 24 29  1  0  0  0  0
 27 30  1  0  0  0  0
 30 31  1  0  0  0  0
 31 32  1  0  0  0  0
 32 33  1  0  0  0  0
 33 34  1  0  0  0  0
 34 35  1  0  0  0  0
 33 36  1  0  0  0  0
 32 37  1  0  0  0  0
 37 38  2  0  0  0  0
 30 38  1  0  0  0  0
 31 39  2  0  0  0  0
 23 40  1  0  0  0  0
 40 41  1  0  0  0  0
 20 41  1  0  0  0  0
 11 42  1  0  0  0  0
 42 43  1  0  0  0  0
  1 43  1  0  0  0  0
  1 44  1  1  0  0  0
 44 45  1  0  0  0  0
 45 46  1  0  0  0  0
 46 47  2  0  0  0  0
 47 48  1  0  0  0  0
 48 49  2  0  0  0  0
 45 49  1  0  0  0  0
M  END
>  <Name>
Itraconazole

>  <CAS>
84625-61-6

>  <Formula>
C35H38Cl2N8O4

>  <MolWt>
705.63 

>  <Bioactivity>
A triazole antifungal agent that inhibits cytochrome P-450-dependent enzymes required for ERGOSTEROL synthesis.

>  <Pathways>
Microbiology & Virology

>  <Target>
Antibiotic

>  <Receptor>
14-? Demethylase

>  <Reference>
1. Gachotte D, et al. Proc Natl Acad Sci U S A. 1997 Oct 14;94(21):11173-8.

$$$$
T1254
  Mrv1561503291623562D          

 48 50  0  0  0  0            999 V2000
    5.8304    0.1359    0.0000 N   0  0  0  0  0  0  0  0  0  0  0  0
    6.2708   -0.5617    0.0000 C   0  0  0  0  0  0  0  0  0  0  0  0
    7.0704   -0.3584    0.0000 C   0  0  0  0  0  0  0  0  0  0  0  0
    7.1241    0.4648    0.0000 C   0  0  0  0  0  0  0  0  0  0  0  0
    6.3578    0.7703    0.0000 C   0  0  0  0  0  0  0  0  0  0  0  0
    5.9451    1.4847    0.0000 C   0  0  0  0  0  0  0  0  0  0  0  0
    5.0077    2.0052    0.0000 C   0  0  0  0  0  0  0  0  0  0  0  0
    4.3100    1.5648    0.0000 N   0  0  0  0  0  0  0  0  0  0  0  0
    3.6756    2.0922    0.0000 C   0  0  0  0  0  0  0  0  0  0  0  0
    3.9811    2.8585    0.0000 C   0  0  0  0  0  0  0  0  0  0  0  0
    4.8044    2.8048    0.0000 C   0  0  0  0  0  0  0  0  0  0  0  0
    5.2298    3.5781    0.0000 C   0  0  0  0  0  0  0  0  0  0  0  0
    5.0393    4.3982    0.0000 O   0  5  0  0  0  0  0  0  0  0  0  0
    5.9611    4.0052    0.0000 O   0  5  0  0  0  0  0  0  0  0  0  0
    3.5074    3.5693    0.0000 C   0  0  0  0  0  0  0  0  0  0  0  0
    2.9613    1.6795    0.0000 C   0  0  0  0  0  0  0  0  0  0  0  0
    2.4407    0.7421    0.0000 C   0  0  0  0  0  0  0  0  0  0  0  0
    2.8811    0.0444    0.0000 N   0  0  0  0  0  0  0  0  0  0  0  0
    2.3537   -0.5900    0.0000 C   0  0  0  0  0  0  0  0  0  0  0  0
    1.5874   -0.2845    0.0000 C   0  0  0  0  0  0  0  0  0  0  0  0
    1.6412    0.5388    0.0000 C   0  0  0  0  0  0  0  0  0  0  0  0
    0.9511    1.0663    0.0000 C   0  0  0  0  0  0  0  0  0  0  0  0
    0.1247    0.9100    0.0000 C   0  0  0  0  0  0  0  0  0  0  0  0
    0.8874   -0.7765    0.0000 C   0  0  0  0  0  0  0  0  0  0  0  0
    2.7664   -1.3044    0.0000 C   0  0  0  0  0  0  0  0  0  0  0  0
    3.7039   -1.8249    0.0000 C   0  0  0  0  0  0  0  0  0  0  0  0
    4.3383   -2.3523    0.0000 N   0  5  0  0  0  0  0  0  0  0  0  0
    5.0359   -1.9119    0.0000 C   0  0  0  0  0  0  0  0  0  0  0  0
    5.7503   -1.4992    0.0000 C   0  0  0  0  0  0  0  0  0  0  0  0
    4.8326   -1.1123    0.0000 C   0  0  0  0  0  0  0  0  0  0  0  0
    4.0094   -1.0585    0.0000 C   0  0  0  0  0  0  0  0  0  0  0  0
    3.8157   -0.3133    0.0000 C   0  0  0  0  0  0  0  0  0  0  0  0
    3.5690    0.4500    0.0000 C   0  0  0  0  0  0  0  0  0  0  0  0
    5.4779   -0.6786    0.0000 C   0  0  0  0  0  0  0  0  0  0  0  0
    4.3558    0.0902    0.0000 Cu  0  2  0  0  0  0  0  0  0  0  0  0
    6.5658    2.0983    0.0000 C   0  0  0  0  0  0  0  0  0  0  0  0
    7.4030    2.1008    0.0000 C   0  0  0  0  0  0  0  0  0  0  0  0
    7.8133    2.8165    0.0000 O   0  5  0  0  0  0  0  0  0  0  0  0
    7.8177    1.3876    0.0000 O   0  0  0  0  0  0  0  0  0  0  0  0
    7.9104    0.9145    0.0000 C   0  0  0  0  0  0  0  0  0  0  0  0
    8.7202    0.5727    0.0000 C   0  0  0  0  0  0  0  0  0  0  0  0
    9.3780    1.0705    0.0000 C   0  0  0  0  0  0  0  0  0  0  0  0
    9.2759    1.8891    0.0000 O   0  5  0  0  0  0  0  0  0  0  0  0
   10.1381    0.7496    0.0000 O   0  0  0  0  0  0  0  0  0  0  0  0
    7.7424   -0.9227    0.0000 C   0  0  0  0  0  0  0  0  0  0  0  0
    4.8525    5.2018    0.0000 Na  0  3  0  0  0  0  0  0  0  0  0  0
    6.6735    4.4213    0.0000 Na  0  3  0  0  0  0  0  0  0  0  0  0
    8.2237    3.5323    0.0000 Na  0  3  0  0  0  0  0  0  0  0  0  0
  1  2  2  0  0  0  0
  2  3  1  0  0  0  0
  3  4  1  0  0  0  0
  4  5  1  0  0  0  0
  1  5  1  0  0  0  0
  5  6  2  3  0  0  0
  6  7  1  0  0  0  0
  7  8  2  0  0  0  0
  8  9  1  0  0  0  0
  9 10  2  0  0  0  0
 10 11  1  0  0  0  0
  7 11  1  0  0  0  0
 11 12  2  3  0  0  0
 12 13  1  0  0  0  0
 12 14  1  0  0  0  0
 10 15  1  0  0  0  0
  9 16  1  0  0  0  0
 16 17  2  0  0  0  0
 17 18  1  0  0  0  0
 18 19  2  0  0  0  0
 19 20  1  0  0  0  0
 20 21  2  0  0  0  0
 17 21  1  0  0  0  0
 21 22  1  0  0  0  0
 22 23  1  0  0  0  0
 20 24  1  0  0  0  0
 19 25  1  0  0  0  0
 25 26  2  0  0  0  0
 26 27  1  0  0  0  0
 27 28  1  0  0  0  0
 28 29  2  3  0  0  0
  2 29  1  0  0  0  0
 28 30  1  0  0  0  0
 30 31  2  0  0  0  0
 26 31  1  0  0  0  0
 31 32  1  0  0  0  0
 32 33  2  0  0  0  0
 30 34  1  0  0  0  0
 18 35  8  0  0  0  0
  1 35  8  0  0  0  0
  6 36  1  0  0  0  0
 36 37  1  0  0  0  0
 37 38  1  0  0  0  0
 37 39  2  0  0  0  0
  4 40  1  0  0  0  0
 40 41  1  0  0  0  0
 41 42  1  0  0  0  0
 42 43  1  0  0  0  0
 42 44  2  0  0  0  0
  3 45  1  0  0  0  0
M  CHG  8  13  -1  14  -1  27  -1  35   2  38  -1  43  -1  46   1  47   1
M  CHG  1  48   1
M  STY  2   1 DAT   2 DAT
M  SAL   1  2  18  35
M  SDT   1 MRV_COORDINATE_BOND_TYPE                              
M  SDD   1     0.0000    0.0000    DR    ALL  0       0  
M  SED   1 39
M  SAL   2  2   1  35
M  SDT   2 MRV_COORDINATE_BOND_TYPE                              
M  SDD   2     0.0000    0.0000    DR    ALL  0       0  
M  SED   2 40
M  END
>  <Name>
Chlorophyllin

>  <CAS>
11006-34-1

>  <Formula>
C34H31CUN4NA3O6

>  <MolWt>
724.16 

>  <Bioactivity>
Chlorophyllin refers to any one of a group of closely related water-soluble salts that are semi-synthetic derivatives of chlorophyll, differing in the identity of the cations associated with the anion. Its most common form is a sodium/copper derivative used as a food additive and in alternative medicine. Chlorophyll is present in green leafy vegetables and reaching levels as high as 5.7% in spinach. 

>  <Pathways>
DNA Damage/DNA Repair

>  <Target>
Mutagens

>  <Receptor>
mutagens

>  <Reference>
1. Castro DJ, et al. Carcinogenesis. 2009 Feb;30(2):315-20. 

$$$$
10405-02-4
  Mrv1561503291623562D          

 30 33  0  0  0  0            999 V2000
   -1.3136    1.1937    0.0000 N   0  3  0  0  0  0  0  0  0  0  0  0
   -1.5453    2.1206    0.0000 C   0  0  0  0  0  0  0  0  0  0  0  0
   -2.1903    1.6062    0.0000 C   0  0  0  0  0  0  0  0  0  0  0  0
   -2.1903    0.7812    0.0000 C   0  0  0  0  0  0  0  0  0  0  0  0
   -1.5453    0.2669    0.0000 C   0  0  0  0  0  0  0  0  0  0  0  0
   -0.6168    0.2529    0.0000 C   0  0  0  0  0  0  0  0  0  0  0  0
   -0.3830    1.1937    0.0000 C   0  0  0  0  0  0  0  0  0  0  0  0
    0.4420    1.1937    0.0000 O   0  0  0  0  0  0  0  0  0  0  0  0
    0.8545    0.4793    0.0000 C   0  0  0  0  0  0  0  0  0  0  0  0
    0.4420   -0.2352    0.0000 C   0  0  0  0  0  0  0  0  0  0  0  0
   -0.2725    0.1773    0.0000 O   0  0  0  0  0  0  0  0  0  0  0  0
    0.0295   -0.9497    0.0000 C   0  0  0  0  0  0  0  0  0  0  0  0
    0.4420   -1.6641    0.0000 C   0  0  0  0  0  0  0  0  0  0  0  0
    0.0295   -2.3786    0.0000 C   0  0  0  0  0  0  0  0  0  0  0  0
   -0.7955   -2.3786    0.0000 C   0  0  0  0  0  0  0  0  0  0  0  0
   -1.2080   -1.6641    0.0000 C   0  0  0  0  0  0  0  0  0  0  0  0
   -0.7955   -0.9497    0.0000 C   0  0  0  0  0  0  0  0  0  0  0  0
    1.1565   -0.6477    0.0000 C   0  0  0  0  0  0  0  0  0  0  0  0
    1.8709   -0.2352    0.0000 C   0  0  0  0  0  0  0  0  0  0  0  0
    2.5854   -0.6477    0.0000 C   0  0  0  0  0  0  0  0  0  0  0  0
    2.5854   -1.4727    0.0000 C   0  0  0  0  0  0  0  0  0  0  0  0
    1.8709   -1.8852    0.0000 C   0  0  0  0  0  0  0  0  0  0  0  0
    1.1565   -1.4727    0.0000 C   0  0  0  0  0  0  0  0  0  0  0  0
    1.6795    0.4793    0.0000 O   0  0  0  0  0  0  0  0  0  0  0  0
   -0.5434    2.0612    0.0000 C   0  0  0  0  0  0  0  0  0  0  0  0
   -0.8286    1.8612    0.0000 C   0  0  0  0  0  0  0  0  0  0  0  0
   -0.0440    1.6062    0.0000 C   0  0  0  0  0  0  0  0  0  0  0  0
   -0.0440    0.7812    0.0000 C   0  0  0  0  0  0  0  0  0  0  0  0
   -0.8286    0.5263    0.0000 C   0  0  0  0  0  0  0  0  0  0  0  0
    4.9426    0.0000    0.0000 Cl  0  5  0  0  0  0  0  0  0  0  0  0
  1  2  1  0  0  0  0
  2  3  1  0  0  0  0
  3  4  1  0  0  0  0
  4  5  1  0  0  0  0
  1  5  1  0  0  0  0
  5  6  1  0  0  0  0
  6  7  1  0  0  0  0
  7  8  1  0  0  0  0
  8  9  1  0  0  0  0
  9 10  1  0  0  0  0
 10 11  1  0  0  0  0
 10 12  1  0  0  0  0
 12 13  2  0  0  0  0
 13 14  1  0  0  0  0
 14 15  2  0  0  0  0
 15 16  1  0  0  0  0
 16 17  2  0  0  0  0
 12 17  1  0  0  0  0
 10 18  1  0  0  0  0
 18 19  2  0  0  0  0
 19 20  1  0  0  0  0
 20 21  2  0  0  0  0
 21 22  1  0  0  0  0
 22 23  2  0  0  0  0
 18 23  1  0  0  0  0
  9 24  2  0  0  0  0
  7 25  1  0  0  0  0
  2 25  1  0  0  0  0
  1 26  1  0  0  0  0
 26 27  1  0  0  0  0
 27 28  1  0  0  0  0
 28 29  1  0  0  0  0
  1 29  1  0  0  0  0
M  CHG  2   1   1  30  -1
M  END
>  <Name>
Trospium chloride

>  <CAS>
10405-02-4

>  <Formula>
C25H30ClNO3

>  <MolWt>
873.10 

>  <Bioactivity>
Trospium is a urinary antispasmodic. It is sold under the brand name Sanctura in the US, and as Trosec in Canada. 

>  <Pathways>
Neuroscience

>  <Target>
AChR antagonist

>  <Receptor>
Muscarinic AChR

>  <Reference>
1. Karaman A, et al. Urology. 2013 Jul;82(1):194-200. 

$$$$
3094-09-5
  Mrv1561503291623562D          

 17 18  0  0  1  0            999 V2000
    0.7145   -1.2375    0.0000 C   0  0  1  0  0  0  0  0  0  0  0  0
    0.7145   -0.4125    0.0000 N   0  0  0  0  0  0  0  0  0  0  0  0
   -0.0000   -0.0000    0.0000 C   0  0  0  0  0  0  0  0  0  0  0  0
   -0.0000    0.8250    0.0000 N   0  0  0  0  0  0  0  0  0  0  0  0
    0.7145    1.2375    0.0000 C   0  0  0  0  0  0  0  0  0  0  0  0
    0.7145    2.0625    0.0000 O   0  0  0  0  0  0  0  0  0  0  0  0
    1.4289    0.8250    0.0000 C   0  0  0  0  0  0  0  0  0  0  0  0
    1.4289   -0.0000    0.0000 C   0  0  0  0  0  0  0  0  0  0  0  0
    2.1434    1.2375    0.0000 F   0  0  0  0  0  0  0  0  0  0  0  0
   -0.7145   -0.4125    0.0000 O   0  0  0  0  0  0  0  0  0  0  0  0
    1.3819   -1.7224    0.0000 C   0  0  1  0  0  0  0  0  0  0  0  0
    1.1270   -2.5070    0.0000 C   0  0  2  0  0  0  0  0  0  0  0  0
    1.6119   -3.1745    0.0000 O   0  0  0  0  0  0  0  0  0  0  0  0
    0.3020   -2.5070    0.0000 C   0  0  2  0  0  0  0  0  0  0  0  0
    0.0470   -1.7224    0.0000 O   0  0  0  0  0  0  0  0  0  0  0  0
   -0.1830   -3.1745    0.0000 C   0  0  0  0  0  0  0  0  0  0  0  0
    2.1665   -1.4675    0.0000 O   0  0  0  0  0  0  0  0  0  0  0  0
  1  2  1  1  0  0  0
  2  3  1  0  0  0  0
  3  4  1  0  0  0  0
  4  5  1  0  0  0  0
  5  6  2  0  0  0  0
  5  7  1  0  0  0  0
  7  8  2  0  0  0  0
  2  8  1  0  0  0  0
  7  9  1  0  0  0  0
  3 10  2  0  0  0  0
  1 11  1  0  0  0  0
 11 12  1  0  0  0  0
 12 13  1  6  0  0  0
 12 14  1  0  0  0  0
 14 15  1  0  0  0  0
  1 15  1  0  0  0  0
 14 16  1  1  0  0  0
 11 17  1  6  0  0  0
M  END
>  <Name>
Doxifluridine

>  <CAS>
3094-09-5

>  <Formula>
C9H11FN2O5

>  <MolWt>
246.19 

>  <Bioactivity>
Doxifluridine is a Thymidylate synthase inhibitor.

>  <Pathways>
DNA Damage/DNA Repair

>  <Target>
Nucleoside antimetabolite/analog

>  <Receptor>
thymidine phosphorylase activator

>  <Reference>
1. Kang YK, et al. Br J Cancer. 2013 Apr 2;108(6):1245-51.

$$$$
T1086
  Mrv1561503291623562D          

 29 31  0  0  1  0            999 V2000
    0.6411   -1.1104    0.0000 C   0  0  2  0  0  0  0  0  0  0  0  0
    0.6411   -0.2854    0.0000 C   0  0  2  0  0  0  0  0  0  0  0  0
    1.3556    0.1271    0.0000 C   0  0  0  0  0  0  0  0  0  0  0  0
    1.3556    0.9521    0.0000 C   0  0  0  0  0  0  0  0  0  0  0  0
    2.0701    1.3646    0.0000 C   0  0  0  0  0  0  0  0  0  0  0  0
    2.7845    0.9521    0.0000 C   0  0  0  0  0  0  0  0  0  0  0  0
    3.4990    1.3646    0.0000 C   0  0  0  0  0  0  0  0  0  0  0  0
    4.2135    0.9521    0.0000 C   0  0  0  0  0  0  0  0  0  0  0  0
    4.2135    0.1271    0.0000 C   0  0  0  0  0  0  0  0  0  0  0  0
    3.4990   -0.2854    0.0000 C   0  0  1  0  0  0  0  0  0  0  0  0
    2.7845    0.1271    0.0000 C   0  0  0  0  0  0  0  0  0  0  0  0
    3.4990   -1.1104    0.0000 O   0  0  0  0  0  0  0  0  0  0  0  0
    3.4990    2.1896    0.0000 C   0  0  0  0  0  0  0  0  0  0  0  0
    2.0701   -0.2854    0.0000 C   0  0  0  0  0  0  0  0  0  0  0  0
    2.0701   -1.1104    0.0000 C   0  0  0  0  0  0  0  0  0  0  0  0
    1.3556   -1.5229    0.0000 C   0  0  0  0  0  0  0  0  0  0  0  0
   -0.1435   -0.0305    0.0000 C   0  0  0  0  0  0  0  0  0  0  0  0
   -0.6284   -0.6979    0.0000 C   0  0  0  0  0  0  0  0  0  0  0  0
   -0.1435   -1.3654    0.0000 C   0  0  2  0  0  0  0  0  0  0  0  0
   -0.3984   -2.1500    0.0000 C   0  0  1  0  0  0  0  0  0  0  0  0
    0.1536   -2.7631    0.0000 C   0  0  0  0  0  0  0  0  0  0  0  0
   -0.1014   -3.5477    0.0000 C   0  0  0  0  0  0  0  0  0  0  0  0
    0.4507   -4.1608    0.0000 C   0  0  1  0  0  0  0  0  0  0  0  0
    0.1957   -4.9454    0.0000 C   0  0  0  0  0  0  0  0  0  0  0  0
    0.7478   -5.5585    0.0000 C   0  0  0  0  0  0  0  0  0  0  0  0
   -0.6112   -5.1170    0.0000 C   0  0  0  0  0  0  0  0  0  0  0  0
    1.2577   -3.9893    0.0000 C   0  0  0  0  0  0  0  0  0  0  0  0
   -1.2054   -2.3215    0.0000 C   0  0  0  0  0  0  0  0  0  0  0  0
    0.5549   -1.9309    0.0000 C   0  0  0  0  0  0  0  0  0  0  0  0
  1  2  1  0  0  0  0
  2  3  1  0  0  0  0
  3  4  2  0  0  0  0
  4  5  1  0  0  0  0
  5  6  2  0  0  0  0
  6  7  1  0  0  0  0
  7  8  1  0  0  0  0
  8  9  1  0  0  0  0
  9 10  1  0  0  0  0
 10 11  1  0  0  0  0
  6 11  1  0  0  0  0
 10 12  1  6  0  0  0
  7 13  2  0  0  0  0
  3 14  1  0  0  0  0
 14 15  1  0  0  0  0
 15 16  1  0  0  0  0
  1 16  1  0  0  0  0
  2 17  1  1  0  0  0
 17 18  1  0  0  0  0
 18 19  1  0  0  0  0
  1 19  1  0  0  0  0
 19 20  1  1  0  0  0
 20 21  1  0  0  0  0
 21 22  2  0  0  0  0
 22 23  1  0  0  0  0
 23 24  1  0  0  0  0
 24 25  1  0  0  0  0
 24 26  1  0  0  0  0
 23 27  1  6  0  0  0
 20 28  1  1  0  0  0
  1 29  1  1  0  0  0
M  END
>  <Name>
Vitamin D2

>  <CAS>
50-14-6

>  <Formula>
C28H44O

>  <MolWt>
396.65 

>  <Bioactivity>
Vitamin D2 has a strong inhibitory effect against bladder tumor promotion by sodium saccharin and induces cell differentiation in leukemia cells. Vitamin D2 is an inhibitor of DNA Polymerase.

>  <Pathways>
DNA Damage/DNA Repair; Vitamin

>  <Target>
DNA synthesis inhibitor;VD

>  <Receptor>
DNA Polymerase ;VD3 receptor

>  <Reference>
1. Mizushina Y, et al. J Pharmacol Sci. 2003 Jul;92(3):283-90.

$$$$
T2368
  Mrv1561503291623562D          

 49 51  0  0  0  0            999 V2000
   -0.0000    2.1750    0.0000 C   0  0  0  0  0  0  0  0  0  0  0  0
   -0.0000    1.3500    0.0000 C   0  0  0  0  0  0  0  0  0  0  0  0
    0.7145    0.9375    0.0000 C   0  0  0  0  0  0  0  0  0  0  0  0
    0.7145    0.1125    0.0000 C   0  0  0  0  0  0  0  0  0  0  0  0
    0.0000   -0.3000    0.0000 C   0  0  0  0  0  0  0  0  0  0  0  0
   -0.7145    0.1125    0.0000 C   0  0  0  0  0  0  0  0  0  0  0  0
   -0.7145    0.9375    0.0000 C   0  0  0  0  0  0  0  0  0  0  0  0
    0.0000   -1.1250    0.0000 S   0  0  0  0  0  0  0  0  0  0  0  0
    0.0000   -1.9500    0.0000 O   0  0  0  0  0  0  0  0  0  0  0  0
   -0.8250   -1.1250    0.0000 O   0  0  0  0  0  0  0  0  0  0  0  0
    0.8250   -1.1250    0.0000 O   0  0  0  0  0  0  0  0  0  0  0  0
   10.5433   -0.7807    0.0000 C   0  0  0  0  0  0  0  0  0  0  0  0
    9.8288   -1.1932    0.0000 N   0  0  0  0  0  0  0  0  0  0  0  0
    9.8288   -2.0182    0.0000 C   0  0  0  0  0  0  0  0  0  0  0  0
    9.1144   -2.4307    0.0000 C   0  0  0  0  0  0  0  0  0  0  0  0
    8.3999   -2.0182    0.0000 C   0  0  0  0  0  0  0  0  0  0  0  0
    8.3999   -1.1932    0.0000 C   0  0  0  0  0  0  0  0  0  0  0  0
    9.1144   -0.7807    0.0000 C   0  0  0  0  0  0  0  0  0  0  0  0
    7.6153   -0.9383    0.0000 S   0  0  0  0  0  0  0  0  0  0  0  0
    7.1304   -1.6057    0.0000 C   0  0  0  0  0  0  0  0  0  0  0  0
    7.6153   -2.2732    0.0000 N   0  0  0  0  0  0  0  0  0  0  0  0
    6.3054   -1.6057    0.0000 C   0  0  0  0  0  0  0  0  0  0  0  0
    5.8929   -2.3202    0.0000 O   0  0  0  0  0  0  0  0  0  0  0  0
    5.8929   -0.8912    0.0000 N   0  0  0  0  0  0  0  0  0  0  0  0
    5.0679   -0.8912    0.0000 C   0  0  0  0  0  0  0  0  0  0  0  0
    4.6554   -1.6057    0.0000 C   0  0  0  0  0  0  0  0  0  0  0  0
    3.8304   -1.6057    0.0000 C   0  0  0  0  0  0  0  0  0  0  0  0
    3.4179   -0.8912    0.0000 C   0  0  0  0  0  0  0  0  0  0  0  0
    3.8304   -0.1768    0.0000 C   0  0  0  0  0  0  0  0  0  0  0  0
    4.6554   -0.1768    0.0000 C   0  0  0  0  0  0  0  0  0  0  0  0
    5.0679    0.5377    0.0000 N   0  0  0  0  0  0  0  0  0  0  0  0
    4.6554    1.2522    0.0000 C   0  0  0  0  0  0  0  0  0  0  0  0
    3.8304    1.2522    0.0000 O   0  0  0  0  0  0  0  0  0  0  0  0
    5.0679    1.9666    0.0000 C   0  0  0  0  0  0  0  0  0  0  0  0
    5.8929    1.9666    0.0000 O   0  0  0  0  0  0  0  0  0  0  0  0
    4.6554    2.6811    0.0000 N   0  0  0  0  0  0  0  0  0  0  0  0
    5.0679    3.3956    0.0000 C   0  0  0  0  0  0  0  0  0  0  0  0
    4.6554    4.1100    0.0000 N   0  0  0  0  0  0  0  0  0  0  0  0
    5.0679    4.8245    0.0000 C   0  0  0  0  0  0  0  0  0  0  0  0
    5.8929    4.8245    0.0000 C   0  0  0  0  0  0  0  0  0  0  0  0
    6.3054    4.1100    0.0000 C   0  0  0  0  0  0  0  0  0  0  0  0
    5.8929    3.3956    0.0000 C   0  0  0  0  0  0  0  0  0  0  0  0
    6.3054    5.5390    0.0000 Cl  0  0  0  0  0  0  0  0  0  0  0  0
    3.4179   -2.3202    0.0000 C   0  0  0  0  0  0  0  0  0  0  0  0
    2.5929   -2.3202    0.0000 O   0  0  0  0  0  0  0  0  0  0  0  0
    3.8304   -3.0347    0.0000 N   0  0  0  0  0  0  0  0  0  0  0  0
    4.6554   -3.0347    0.0000 C   0  0  0  0  0  0  0  0  0  0  0  0
    3.4179   -3.7491    0.0000 C   0  0  0  0  0  0  0  0  0  0  0  0
    0.0000   -5.3991    0.0000 O   0  0  0  0  0  0  0  0  0  0  0  0
  1  2  1  0  0  0  0
  2  3  2  0  0  0  0
  3  4  1  0  0  0  0
  4  5  2  0  0  0  0
  5  6  1  0  0  0  0
  6  7  2  0  0  0  0
  2  7  1  0  0  0  0
  5  8  1  0  0  0  0
  8  9  2  0  0  0  0
  8 10  2  0  0  0  0
  8 11  1  0  0  0  0
 12 13  1  0  0  0  0
 13 14  1  0  0  0  0
 14 15  1  0  0  0  0
 15 16  1  0  0  0  0
 16 17  2  0  0  0  0
 17 18  1  0  0  0  0
 13 18  1  0  0  0  0
 17 19  1  0  0  0  0
 19 20  1  0  0  0  0
 20 21  2  0  0  0  0
 16 21  1  0  0  0  0
 20 22  1  0  0  0  0
 22 23  2  0  0  0  0
 22 24  1  0  0  0  0
 24 25  1  0  0  0  0
 25 26  1  0  0  0  0
 26 27  1  0  0  0  0
 27 28  1  0  0  0  0
 28 29  1  0  0  0  0
 29 30  1  0  0  0  0
 25 30  1  0  0  0  0
 30 31  1  0  0  0  0
 31 32  1  0  0  0  0
 32 33  2  0  0  0  0
 32 34  1  0  0  0  0
 34 35  2  0  0  0  0
 34 36  1  0  0  0  0
 36 37  1  0  0  0  0
 37 38  2  0  0  0  0
 38 39  1  0  0  0  0
 39 40  2  0  0  0  0
 40 41  1  0  0  0  0
 41 42  2  0  0  0  0
 37 42  1  0  0  0  0
 40 43  1  0  0  0  0
 27 44  1  0  0  0  0
 44 45  2  0  0  0  0
 44 46  1  0  0  0  0
 46 47  1  0  0  0  0
 46 48  1  0  0  0  0
M  END
>  <Name>
Edoxaban Tosylate Monohydrate


>  <CAS>
1229194-11-9

>  <Formula>
C24H30ClN7O4S.C7H8O3S.H2O

>  <MolWt>
738.27 

>  <Bioactivity>
Edoxaban is a selective factor Xa inhibitor with Ki of 0.561 nM, >10 000-fold selectivity over thrombin and FIXa, and is also an orally bioavailable anticoagulant drug.

>  <Pathways>
Metabolism

>  <Target>
Factor Xa inhibitor

>  <Receptor>
Factor Xa;Thrombin

>  <Reference>
1. Furugohri T, et al. J Thromb Haemost. 2008, 6(9), 1542-1549.

$$$$
298-81-7
  Mrv1561503291623562D          

 16 18  0  0  0  0            999 V2000
    0.6411   -2.7604    0.0000 C   0  0  0  0  0  0  0  0  0  0  0  0
    1.3556   -2.3479    0.0000 C   0  0  0  0  0  0  0  0  0  0  0  0
    1.3556   -1.5229    0.0000 C   0  0  0  0  0  0  0  0  0  0  0  0
    0.6411   -1.1104    0.0000 C   0  0  0  0  0  0  0  0  0  0  0  0
   -0.0734   -1.5229    0.0000 C   0  0  0  0  0  0  0  0  0  0  0  0
   -0.0734   -2.3479    0.0000 C   0  0  0  0  0  0  0  0  0  0  0  0
   -0.8580   -2.6029    0.0000 C   0  0  0  0  0  0  0  0  0  0  0  0
   -1.3429   -1.9354    0.0000 C   0  0  0  0  0  0  0  0  0  0  0  0
   -0.8580   -1.2680    0.0000 O   0  0  0  0  0  0  0  0  0  0  0  0
    0.6411   -0.2854    0.0000 O   0  0  0  0  0  0  0  0  0  0  0  0
   -0.0734    0.1271    0.0000 C   0  0  0  0  0  0  0  0  0  0  0  0
    2.0701   -1.1104    0.0000 O   0  0  0  0  0  0  0  0  0  0  0  0
    2.7845   -1.5229    0.0000 C   0  0  0  0  0  0  0  0  0  0  0  0
    3.4990   -1.1104    0.0000 O   0  0  0  0  0  0  0  0  0  0  0  0
    2.7845   -2.3479    0.0000 C   0  0  0  0  0  0  0  0  0  0  0  0
    2.0701   -2.7604    0.0000 C   0  0  0  0  0  0  0  0  0  0  0  0
  1  2  2  0  0  0  0
  2  3  1  0  0  0  0
  3  4  2  0  0  0  0
  4  5  1  0  0  0  0
  5  6  2  0  0  0  0
  1  6  1  0  0  0  0
  6  7  1  0  0  0  0
  7  8  2  0  0  0  0
  8  9  1  0  0  0  0
  5  9  1  0  0  0  0
  4 10  1  0  0  0  0
 10 11  1  0  0  0  0
  3 12  1  0  0  0  0
 12 13  1  0  0  0  0
 13 14  2  0  0  0  0
 13 15  1  0  0  0  0
 15 16  2  0  0  0  0
  2 16  1  0  0  0  0
M  END
>  <Name>
8-Methoxypsoralen

>  <CAS>
298-81-7

>  <Formula>
C12H8O4

>  <MolWt>
216.19 

>  <Bioactivity>
A naturally occurring furocoumarin compound found in several species of plants, including Psoralea corylifolia. It is a photoactive substance that forms DNA ADDUCTS in the presence of ultraviolet A irradiation. 

>  <Pathways>
Others

>  <Target>
DNA photosenstizing

>  <Receptor>
DNA

>  <Reference>
1. Smith SI, et al. Analyst. 2010 May; 135(5):943-52.

$$$$
T1029
  Mrv1561503291623562D          

 28 29  0  0  1  0            999 V2000
   -0.1999   -2.9005    0.0000 C   0  0  2  0  0  0  0  0  0  0  0  0
   -0.1999   -2.0755    0.0000 N   0  0  0  0  0  0  0  0  0  0  0  0
   -0.9144   -1.6630    0.0000 C   0  0  0  0  0  0  0  0  0  0  0  0
   -1.6289   -2.0755    0.0000 O   0  0  0  0  0  0  0  0  0  0  0  0
   -0.9144   -0.8380    0.0000 C   0  0  0  0  0  0  0  0  0  0  0  0
   -0.1999   -0.4255    0.0000 N   0  0  0  0  0  0  0  0  0  0  0  0
    0.5146   -0.8380    0.0000 O   0  0  0  0  0  0  0  0  0  0  0  0
    1.2290   -0.4255    0.0000 C   0  0  0  0  0  0  0  0  0  0  0  0
    1.9435   -0.0130    0.0000 C   0  0  0  0  0  0  0  0  0  0  0  0
    2.6580   -0.4255    0.0000 O   0  0  0  0  0  0  0  0  0  0  0  0
    1.9435    0.8120    0.0000 O   0  0  0  0  0  0  0  0  0  0  0  0
    0.8165    0.2889    0.0000 C   0  0  0  0  0  0  0  0  0  0  0  0
    1.6415   -1.1400    0.0000 C   0  0  0  0  0  0  0  0  0  0  0  0
   -1.6289   -0.4255    0.0000 C   0  0  0  0  0  0  0  0  0  0  0  0
   -2.3825   -0.7611    0.0000 C   0  0  0  0  0  0  0  0  0  0  0  0
   -2.9346   -0.1480    0.0000 S   0  0  0  0  0  0  0  0  0  0  0  0
   -2.5221    0.5665    0.0000 C   0  0  0  0  0  0  0  0  0  0  0  0
   -1.7151    0.3949    0.0000 N   0  0  0  0  0  0  0  0  0  0  0  0
   -2.8576    1.3202    0.0000 N   0  3  0  0  0  0  0  0  0  0  0  0
    0.3835   -3.4839    0.0000 C   0  0  0  0  0  0  0  0  0  0  0  0
    1.2085   -3.4839    0.0000 O   0  0  0  0  0  0  0  0  0  0  0  0
   -0.1999   -4.0673    0.0000 N   0  0  0  0  0  0  0  0  0  0  0  0
   -0.1999   -4.8923    0.0000 S   0  0  0  0  0  0  0  0  0  0  0  0
   -0.1999   -5.7173    0.0000 O   0  5  0  0  0  0  0  0  0  0  0  0
   -1.0249   -4.8923    0.0000 O   0  0  0  0  0  0  0  0  0  0  0  0
    0.6251   -4.8923    0.0000 O   0  0  0  0  0  0  0  0  0  0  0  0
   -0.7833   -3.4839    0.0000 C   0  0  1  0  0  0  0  0  0  0  0  0
   -1.6083   -3.4839    0.0000 C   0  0  0  0  0  0  0  0  0  0  0  0
  1  2  1  6  0  0  0
  2  3  1  0  0  0  0
  3  4  2  0  0  0  0
  3  5  1  0  0  0  0
  5  6  2  0  0  0  0
  6  7  1  0  0  0  0
  7  8  1  0  0  0  0
  8  9  1  0  0  0  0
  9 10  2  0  0  0  0
  9 11  1  0  0  0  0
  8 12  1  0  0  0  0
  8 13  1  0  0  0  0
  5 14  1  0  0  0  0
 14 15  2  0  0  0  0
 15 16  1  0  0  0  0
 16 17  1  0  0  0  0
 17 18  2  0  0  0  0
 14 18  1  0  0  0  0
 17 19  1  0  0  0  0
  1 20  1  0  0  0  0
 20 21  2  0  0  0  0
 20 22  1  0  0  0  0
 22 23  1  0  0  0  0
 23 24  1  0  0  0  0
 23 25  2  0  0  0  0
 23 26  2  0  0  0  0
 22 27  1  0  0  0  0
  1 27  1  0  0  0  0
 27 28  1  1  0  0  0
M  CHG  2  19   1  24  -1
M  END
>  <Name>
Aztreonam

>  <CAS>
78110-38-0

>  <Formula>
C13H17N5O8S2

>  <MolWt>
435.43 

>  <Bioactivity>
A monocyclic beta-lactam antibiotic originally isolated from Chromobacterium violaceum. It is resistant to beta-lactamases and is used in gram-negative infections, especially of the meninges, bladder, and kidneys. It may cause a superinfection with gram-positive organisms.

>  <Pathways>
Microbiology & Virology

>  <Target>
Antibiotic

>  <Receptor>
PBPs;?-lactamase

>  <Reference>
1. Poirel L, et al. Antimicrob Agents Chemother. 2005 Aug;49(8):3593-7. 

$$$$
T1273
  Mrv1561503291623562D          

 27 29  0  0  0  0            999 V2000
    3.5724    1.2375    0.0000 C   0  0  0  0  0  0  0  0  0  0  0  0
    4.2868    0.8250    0.0000 C   0  0  0  0  0  0  0  0  0  0  0  0
    5.0013    1.2375    0.0000 C   0  0  0  0  0  0  0  0  0  0  0  0
    5.7158    0.8250    0.0000 O   0  0  0  0  0  0  0  0  0  0  0  0
    5.0013    2.0625    0.0000 O   0  0  0  0  0  0  0  0  0  0  0  0
    4.2868   -0.0000    0.0000 C   0  0  0  0  0  0  0  0  0  0  0  0
    3.5724   -0.4125    0.0000 C   0  0  0  0  0  0  0  0  0  0  0  0
    2.8579   -0.0000    0.0000 C   0  0  0  0  0  0  0  0  0  0  0  0
    2.8579    0.8250    0.0000 C   0  0  0  0  0  0  0  0  0  0  0  0
    2.1434    1.2375    0.0000 C   0  0  0  0  0  0  0  0  0  0  0  0
    1.4289    0.8250    0.0000 C   0  0  0  0  0  0  0  0  0  0  0  0
    1.4289   -0.0000    0.0000 C   0  0  0  0  0  0  0  0  0  0  0  0
    2.1434   -0.4125    0.0000 C   0  0  0  0  0  0  0  0  0  0  0  0
    2.1434   -1.2375    0.0000 O   0  0  0  0  0  0  0  0  0  0  0  0
    0.7145   -0.4125    0.0000 C   0  0  0  0  0  0  0  0  0  0  0  0
   -0.0000    0.0000    0.0000 C   0  0  0  0  0  0  0  0  0  0  0  0
    0.0000    0.8250    0.0000 C   0  0  0  0  0  0  0  0  0  0  0  0
    0.7145    1.2375    0.0000 C   0  0  0  0  0  0  0  0  0  0  0  0
    0.7145   -1.2375    0.0000 O   0  0  0  0  0  0  0  0  0  0  0  0
   -0.0000   -1.6500    0.0000 C   0  0  0  0  0  0  0  0  0  0  0  0
   -0.0000   -2.4750    0.0000 C   0  0  0  0  0  0  0  0  0  0  0  0
   -0.7145   -1.2375    0.0000 O   0  0  0  0  0  0  0  0  0  0  0  0
    2.1434    2.0625    0.0000 O   0  0  0  0  0  0  0  0  0  0  0  0
    3.5724   -1.2375    0.0000 O   0  0  0  0  0  0  0  0  0  0  0  0
    4.2868   -1.6500    0.0000 C   0  0  0  0  0  0  0  0  0  0  0  0
    5.0013   -1.2375    0.0000 C   0  0  0  0  0  0  0  0  0  0  0  0
    4.2868   -2.4750    0.0000 O   0  0  0  0  0  0  0  0  0  0  0  0
  1  2  2  0  0  0  0
  2  3  1  0  0  0  0
  3  4  1  0  0  0  0
  3  5  2  0  0  0  0
  2  6  1  0  0  0  0
  6  7  2  0  0  0  0
  7  8  1  0  0  0  0
  8  9  2  0  0  0  0
  1  9  1  0  0  0  0
  9 10  1  0  0  0  0
 10 11  1  0  0  0  0
 11 12  2  0  0  0  0
 12 13  1  0  0  0  0
  8 13  1  0  0  0  0
 13 14  2  0  0  0  0
 12 15  1  0  0  0  0
 15 16  2  0  0  0  0
 16 17  1  0  0  0  0
 17 18  2  0  0  0  0
 11 18  1  0  0  0  0
 15 19  1  0  0  0  0
 19 20  1  0  0  0  0
 20 21  1  0  0  0  0
 20 22  2  0  0  0  0
 10 23  2  0  0  0  0
  7 24  1  0  0  0  0
 24 25  1  0  0  0  0
 25 26  1  0  0  0  0
 25 27  2  0  0  0  0
M  END
>  <Name>
Diacerein

>  <CAS>
13739-02-1

>  <Formula>
C19H12O8

>  <MolWt>
368.29 

>  <Bioactivity>
Diacerin is an inhibitor of pro-inflammatory cytokine Interleukin-1B (IL-1B) production, prescribed for osteoarthritis and chronic inflammatory arthritis.

>  <Pathways>
Immunology/Inflammation

>  <Target>
IL inhibitor

>  <Receptor>
IL-1?

>  <Reference>
1. Yaron M, et al. Osteoarthritis Cartilage, 1999, 7(3), 272-280.

$$$$
181695-72-7
  Mrv1561503291623562D          

 22 24  0  0  0  0            999 V2000
    1.4289   -0.0000    0.0000 C   0  0  0  0  0  0  0  0  0  0  0  0
    0.7145   -0.4125    0.0000 C   0  0  0  0  0  0  0  0  0  0  0  0
    0.7145   -1.2375    0.0000 C   0  0  0  0  0  0  0  0  0  0  0  0
    1.3819   -1.7224    0.0000 C   0  0  0  0  0  0  0  0  0  0  0  0
    1.1270   -2.5070    0.0000 O   0  0  0  0  0  0  0  0  0  0  0  0
    0.3020   -2.5070    0.0000 N   0  0  0  0  0  0  0  0  0  0  0  0
    0.0470   -1.7224    0.0000 C   0  0  0  0  0  0  0  0  0  0  0  0
   -0.7376   -1.4675    0.0000 C   0  0  0  0  0  0  0  0  0  0  0  0
   -1.3507   -2.0195    0.0000 C   0  0  0  0  0  0  0  0  0  0  0  0
   -2.1353   -1.7646    0.0000 C   0  0  0  0  0  0  0  0  0  0  0  0
   -2.3068   -0.9576    0.0000 C   0  0  0  0  0  0  0  0  0  0  0  0
   -1.6937   -0.4056    0.0000 C   0  0  0  0  0  0  0  0  0  0  0  0
   -0.9091   -0.6605    0.0000 C   0  0  0  0  0  0  0  0  0  0  0  0
    2.1665   -1.4675    0.0000 C   0  0  0  0  0  0  0  0  0  0  0  0
   -0.0000    0.0000    0.0000 C   0  0  0  0  0  0  0  0  0  0  0  0
   -0.0000    0.8250    0.0000 C   0  0  0  0  0  0  0  0  0  0  0  0
    0.7145    1.2375    0.0000 C   0  0  0  0  0  0  0  0  0  0  0  0
    1.4289    0.8250    0.0000 C   0  0  0  0  0  0  0  0  0  0  0  0
    0.7145    2.0625    0.0000 S   0  0  0  0  0  0  0  0  0  0  0  0
    0.7145    2.8875    0.0000 N   0  0  0  0  0  0  0  0  0  0  0  0
    1.5395    2.0625    0.0000 O   0  0  0  0  0  0  0  0  0  0  0  0
   -0.1105    2.0625    0.0000 O   0  0  0  0  0  0  0  0  0  0  0  0
  1  2  2  0  0  0  0
  2  3  1  0  0  0  0
  3  4  2  0  0  0  0
  4  5  1  0  0  0  0
  5  6  1  0  0  0  0
  6  7  2  0  0  0  0
  3  7  1  0  0  0  0
  7  8  1  0  0  0  0
  8  9  2  0  0  0  0
  9 10  1  0  0  0  0
 10 11  2  0  0  0  0
 11 12  1  0  0  0  0
 12 13  2  0  0  0  0
  8 13  1  0  0  0  0
  4 14  1  0  0  0  0
  2 15  1  0  0  0  0
 15 16  2  0  0  0  0
 16 17  1  0  0  0  0
 17 18  2  0  0  0  0
  1 18  1  0  0  0  0
 17 19  1  0  0  0  0
 19 20  1  0  0  0  0
 19 21  2  0  0  0  0
 19 22  2  0  0  0  0
M  END
>  <Name>
Valdecoxib

>  <CAS>
181695-72-7

>  <Formula>
C16H14N2O3S

>  <MolWt>
314.36 

>  <Bioactivity>
Valdecoxib was removed from the Canadian, U.S., and E.U. markets in 2005 due to concerns about possible increased risk of heart attack and stroke.  

>  <Pathways>
Neuroscience

>  <Target>
COX inhibitor

>  <Receptor>
Prostaglandin G/H synthase

>  <Reference>
1. Talley JJ, et al. J Med Chem. 2000 Mar 9;43(5):775-7. 

$$$$
555-57-7
  Mrv1561503291623562D          

 12 12  0  0  0  0            999 V2000
    0.7145   -0.4125    0.0000 C   0  0  0  0  0  0  0  0  0  0  0  0
   -0.0000   -0.0000    0.0000 C   0  0  0  0  0  0  0  0  0  0  0  0
   -0.0000    0.8250    0.0000 C   0  0  0  0  0  0  0  0  0  0  0  0
    0.7145    1.2375    0.0000 C   0  0  0  0  0  0  0  0  0  0  0  0
    1.4289    0.8250    0.0000 C   0  0  0  0  0  0  0  0  0  0  0  0
    1.4289   -0.0000    0.0000 C   0  0  0  0  0  0  0  0  0  0  0  0
    2.1434   -0.4125    0.0000 C   0  0  0  0  0  0  0  0  0  0  0  0
    2.8579   -0.0000    0.0000 N   0  0  0  0  0  0  0  0  0  0  0  0
    3.5724   -0.4125    0.0000 C   0  0  0  0  0  0  0  0  0  0  0  0
    4.2868   -0.0000    0.0000 C   0  0  0  0  0  0  0  0  0  0  0  0
    5.0013    0.4125    0.0000 C   0  0  0  0  0  0  0  0  0  0  0  0
    2.8579    0.8250    0.0000 C   0  0  0  0  0  0  0  0  0  0  0  0
  1  2  2  0  0  0  0
  2  3  1  0  0  0  0
  3  4  2  0  0  0  0
  4  5  1  0  0  0  0
  5  6  2  0  0  0  0
  1  6  1  0  0  0  0
  6  7  1  0  0  0  0
  7  8  1  0  0  0  0
  8  9  1  0  0  0  0
  9 10  1  0  0  0  0
 10 11  3  0  0  0  0
  8 12  1  0  0  0  0
M  END
>  <Name>
Paragyline

>  <CAS>
555-57-7

>  <Formula>
C11H14ClN

>  <MolWt>
159.23 

>  <Bioactivity>
A monoamine oxidase inhibitor with antihypertensive properties. 

>  <Pathways>
Enzyme

>  <Target>
MAO inhibitor

>  <Receptor>
MAO

>  <Reference>
1. Patkar AA, et al. CNS Spectr. 2006, 11(5):363-75. 


$$$$
25905-77-5
  Mrv1561503291623562D          

 26 24  0  0  0  0            999 V2000
    0.4125    0.0000    0.0000 H   0  3  0  0  0  0  0  0  0  0  0  0
    3.5946    0.0000    0.0000 H   0  3  0  0  0  0  0  0  0  0  0  0
    0.0000   -4.1250    0.0000 C   0  0  0  0  0  0  0  0  0  0  0  0
   -0.7145   -4.5375    0.0000 N   0  0  0  0  0  0  0  0  0  0  0  0
   -0.7145   -5.3625    0.0000 C   0  0  0  0  0  0  0  0  0  0  0  0
    0.0000   -5.7750    0.0000 C   0  0  0  0  0  0  0  0  0  0  0  0
    0.0000   -6.6000    0.0000 C   0  0  0  0  0  0  0  0  0  0  0  0
   -0.7145   -7.0125    0.0000 C   0  0  0  0  0  0  0  0  0  0  0  0
   -1.4289   -6.6000    0.0000 N   0  0  0  0  0  0  0  0  0  0  0  0
   -1.4289   -5.7750    0.0000 N   0  0  0  0  0  0  0  0  0  0  0  0
   -0.7145   -7.8375    0.0000 C   0  0  0  0  0  0  0  0  0  0  0  0
    0.0000   -8.2500    0.0000 C   0  0  0  0  0  0  0  0  0  0  0  0
   -0.0000   -9.0750    0.0000 C   0  0  0  0  0  0  0  0  0  0  0  0
   -0.7145   -9.4875    0.0000 C   0  0  0  0  0  0  0  0  0  0  0  0
   -1.4289   -9.0750    0.0000 C   0  0  0  0  0  0  0  0  0  0  0  0
   -1.4289   -8.2500    0.0000 C   0  0  0  0  0  0  0  0  0  0  0  0
    0.7145   -5.3625    0.0000 C   0  0  0  0  0  0  0  0  0  0  0  0
    0.0000   -3.3000    0.0000 C   0  0  0  0  0  0  0  0  0  0  0  0
    0.7145   -2.8875    0.0000 N   0  0  0  0  0  0  0  0  0  0  0  0
    0.7145   -2.0625    0.0000 C   0  0  0  0  0  0  0  0  0  0  0  0
    1.4289   -1.6500    0.0000 C   0  0  0  0  0  0  0  0  0  0  0  0
    2.1434   -2.0625    0.0000 O   0  0  0  0  0  0  0  0  0  0  0  0
    2.1434   -2.8875    0.0000 C   0  0  0  0  0  0  0  0  0  0  0  0
    1.4289   -3.3000    0.0000 C   0  0  0  0  0  0  0  0  0  0  0  0
   -0.4125    0.0000    0.0000 Cl  0  5  0  0  0  0  0  0  0  0  0  0
    2.7696    0.0000    0.0000 Cl  0  5  0  0  0  0  0  0  0  0  0  0
  3  4  1  0  0  0  0
  4  5  1  0  0  0  0
  5  6  2  0  0  0  0
  6  7  1  0  0  0  0
  7  8  2  0  0  0  0
  8  9  1  0  0  0  0
  9 10  2  0  0  0  0
  5 10  1  0  0  0  0
  8 11  1  0  0  0  0
 11 12  2  0  0  0  0
 12 13  1  0  0  0  0
 13 14  2  0  0  0  0
 14 15  1  0  0  0  0
 15 16  2  0  0  0  0
 11 16  1  0  0  0  0
  6 17  1  0  0  0  0
  3 18  1  0  0  0  0
 18 19  1  0  0  0  0
 19 20  1  0  0  0  0
 20 21  1  0  0  0  0
 21 22  1  0  0  0  0
 22 23  1  0  0  0  0
 23 24  1  0  0  0  0
 19 24  1  0  0  0  0
M  CHG  4   1   1   2   1  25  -1  26  -1
M  END
>  <Name>
Minaprine 2HCl

>  <CAS>
25905-77-5

>  <Formula>
C17H22N4O.2HCl

>  <MolWt>
371.30 

>  <Bioactivity>
Minaprine is a psychotropic drug which has proved to be effective in the treatment of various depressive states. Like most antidepressants minaprine antagonizes behavioral despair. Minaprine is an amino-phenylpyridazine antidepressant reported to be relatively free of cardiotoxicity, drowsiness, and weight gain.

>  <Pathways>
Neuroscience

>  <Target>
Dopamine Receptor agonist;AChR antagonist;AChE inhibitor;5-HT receptor antagonist

>  <Receptor>
Dopamine receptor;Muscarinic AChR;AChE;5-HT receptor;Sodium-dependent serotonin transporter

>  <Reference>
1. Kodama K, et al. Jpn J Pharmacol. 1992 Sep; 60(1):33-8.

$$$$
135729-62-3
  Mrv1561503291623562D          

 24 26  0  0  1  0            999 V2000
    0.9943   -0.6562    0.0000 C   0  0  0  0  0  0  0  0  0  0  0  0
    0.2798   -0.2437    0.0000 N   0  0  0  0  0  0  0  0  0  0  0  0
   -0.4347   -0.6563    0.0000 C   0  0  0  0  0  0  0  0  0  0  0  0
   -1.1492   -0.2438    0.0000 C   0  0  0  0  0  0  0  0  0  0  0  0
   -1.1492    0.5812    0.0000 C   0  0  0  0  0  0  0  0  0  0  0  0
   -1.8636    0.9937    0.0000 C   0  0  0  0  0  0  0  0  0  0  0  0
   -2.5781    0.5812    0.0000 C   0  0  0  0  0  0  0  0  0  0  0  0
   -2.5781   -0.2438    0.0000 C   0  0  0  0  0  0  0  0  0  0  0  0
   -1.8636   -0.6563    0.0000 C   0  0  0  0  0  0  0  0  0  0  0  0
   -1.8636    1.8187    0.0000 C   0  0  0  0  0  0  0  0  0  0  0  0
   -1.1492    2.2312    0.0000 C   0  0  0  0  0  0  0  0  0  0  0  0
   -0.4347    1.8187    0.0000 C   0  0  0  0  0  0  0  0  0  0  0  0
   -0.4347    0.9937    0.0000 C   0  0  0  0  0  0  0  0  0  0  0  0
    0.2798    0.5813    0.0000 C   0  0  0  0  0  0  0  0  0  0  0  0
    0.9943    0.9938    0.0000 O   0  0  0  0  0  0  0  0  0  0  0  0
    1.7087   -0.2437    0.0000 C   0  0  0  0  0  0  0  0  0  0  0  0
    2.4232   -0.6562    0.0000 C   0  0  0  0  0  0  0  0  0  0  0  0
    2.4232   -1.4812    0.0000 C   0  0  0  0  0  0  0  0  0  0  0  0
    1.7087   -1.8937    0.0000 N   0  0  0  0  0  0  0  0  0  0  0  0
    0.9943   -1.4812    0.0000 C   0  0  0  0  0  0  0  0  0  0  0  0
    1.8462   -1.3437    0.0000 C   0  0  0  0  0  0  0  0  0  0  0  0
    1.8462   -0.7937    0.0000 C   0  0  0  0  0  0  0  0  0  0  0  0
    5.6053    0.0000    0.0000 H   0  3  0  0  0  0  0  0  0  0  0  0
    4.7803    0.0000    0.0000 Cl  0  5  0  0  0  0  0  0  0  0  0  0
  1  2  1  0  0  0  0
  2  3  1  0  0  0  0
  3  4  1  0  0  0  0
  4  5  1  0  0  0  0
  5  6  2  0  0  0  0
  6  7  1  0  0  0  0
  7  8  1  0  0  0  0
  8  9  1  0  0  0  0
  4  9  1  0  0  0  0
  6 10  1  0  0  0  0
 10 11  2  0  0  0  0
 11 12  1  0  0  0  0
 12 13  2  0  0  0  0
  5 13  1  0  0  0  0
 13 14  1  0  0  0  0
  2 14  1  0  0  0  0
 14 15  2  0  0  0  0
  1 16  1  0  0  0  0
 16 17  1  0  0  0  0
 17 18  1  0  0  0  0
 18 19  1  0  0  0  0
 19 20  1  0  0  0  0
  1 20  1  0  0  0  0
 19 21  1  0  0  0  0
 21 22  1  0  0  0  0
 16 22  1  0  0  0  0
M  CHG  2  23   1  24  -1
M  END
>  <Name>
Palonosetron HCl

>  <CAS>
135729-62-3

>  <Formula>
C19H24N2O.HCl

>  <MolWt>
332.87 

>  <Bioactivity>
Palonosetron (INN, trade name Aloxi) is a 5-HT3 antagonist used in the prevention and treatment of chemotherapy-induced nausea and vomiting (CINV). It is the most effective of the 5-HT3 antagonists in controlling delayed CINV nausea and vomiting that appear more than 24 hours after the first dose of a course of chemotherapy and is the only drug of its class approved for this use by the U.S. Food and Drug Administration. As of 2008, it is the most recent 5-HT3 antagonist to enter clinical use. 

>  <Pathways>
Neuroscience

>  <Target>
5-HT Receptor antagonist

>  <Receptor>
5-HT Receptor

>  <Reference>
1. Grunberg SM, Koeller JM. Expert Opin Pharmacother. 2003 Dec;4(12):2297-303.

$$$$
140462-76-6
  Mrv1561503291623562D          

 27 27  0  0  0  0            999 V2000
    0.4125    0.0000    0.0000 H   0  3  0  0  0  0  0  0  0  0  0  0
    5.9663   -0.1133    0.0000 C   0  0  0  0  0  0  0  0  0  0  0  0
    6.7546    0.1298    0.0000 C   0  0  0  0  0  0  0  0  0  0  0  0
    6.9382    0.9342    0.0000 C   0  0  0  0  0  0  0  0  0  0  0  0
    6.3334    1.4953    0.0000 C   0  0  0  0  0  0  0  0  0  0  0  0
    5.5451    1.2521    0.0000 C   0  0  0  0  0  0  0  0  0  0  0  0
    5.3615    0.4478    0.0000 C   0  0  0  0  0  0  0  0  0  0  0  0
    4.6182    0.0899    0.0000 C   0  0  0  0  0  0  0  0  0  0  0  0
    3.8749    0.4478    0.0000 C   0  0  0  0  0  0  0  0  0  0  0  0
    3.2701   -0.1133    0.0000 C   0  0  0  0  0  0  0  0  0  0  0  0
    2.4818    0.1298    0.0000 C   0  0  0  0  0  0  0  0  0  0  0  0
    2.2982    0.9342    0.0000 C   0  0  0  0  0  0  0  0  0  0  0  0
    2.9030    1.4953    0.0000 C   0  0  0  0  0  0  0  0  0  0  0  0
    3.6913    1.2521    0.0000 C   0  0  0  0  0  0  0  0  0  0  0  0
    4.2057    1.8971    0.0000 C   0  0  0  0  0  0  0  0  0  0  0  0
    5.0307    1.8971    0.0000 O   0  0  0  0  0  0  0  0  0  0  0  0
    4.6182   -0.7351    0.0000 C   0  0  0  0  0  0  0  0  0  0  0  0
    5.3327   -1.1476    0.0000 C   0  0  0  0  0  0  0  0  0  0  0  0
    5.3327   -1.9726    0.0000 C   0  0  0  0  0  0  0  0  0  0  0  0
    6.0472   -2.3851    0.0000 N   0  0  0  0  0  0  0  0  0  0  0  0
    6.0472   -3.2101    0.0000 C   0  0  0  0  0  0  0  0  0  0  0  0
    6.7616   -1.9726    0.0000 C   0  0  0  0  0  0  0  0  0  0  0  0
    7.3594   -0.4313    0.0000 C   0  0  0  0  0  0  0  0  0  0  0  0
    8.1477   -0.1881    0.0000 C   0  0  0  0  0  0  0  0  0  0  0  0
    8.3313    0.6162    0.0000 O   0  0  0  0  0  0  0  0  0  0  0  0
    8.7525   -0.7493    0.0000 O   0  0  0  0  0  0  0  0  0  0  0  0
   -0.4125    0.0000    0.0000 Cl  0  5  0  0  0  0  0  0  0  0  0  0
  2  3  2  0  0  0  0
  3  4  1  0  0  0  0
  4  5  2  0  0  0  0
  5  6  1  0  0  0  0
  6  7  2  0  0  0  0
  2  7  1  0  0  0  0
  7  8  1  0  0  0  0
  8  9  1  0  0  0  0
  9 10  2  0  0  0  0
 10 11  1  0  0  0  0
 11 12  2  0  0  0  0
 12 13  1  0  0  0  0
 13 14  2  0  0  0  0
  9 14  1  0  0  0  0
 14 15  1  0  0  0  0
 15 16  1  0  0  0  0
  6 16  1  0  0  0  0
  8 17  2  0  0  0  0
 17 18  1  0  0  0  0
 18 19  1  0  0  0  0
 19 20  1  0  0  0  0
 20 21  1  0  0  0  0
 20 22  1  0  0  0  0
  3 23  1  0  0  0  0
 23 24  1  0  0  0  0
 24 25  1  0  0  0  0
 24 26  2  0  0  0  0
M  CHG  2   1   1  27  -1
M  END
>  <Name>
Olopatadine HCl

>  <CAS>
140462-76-6

>  <Formula>
C21H23NO3.HCl

>  <MolWt>
373.87 

>  <Bioactivity>
Olopatadine HCl is a histamine blocker used to treat allergic conjunctivitis. Olopatadine is one of the second-generation histamine H1 receptor antagonists that are treated for allergic disorders. 

>  <Pathways>
Neuroscience

>  <Target>
Histamine Receptor

>  <Receptor>
Histamine receptor

>  <Reference>
1. Tamura T, et al. Pharmacology. 2005 Dec;75(1):45-52.

$$$$
136310-93-5
  Mrv1561503291623562D          

 26 30  0  0  0  0            999 V2000
    1.5712    1.6212    0.0000 C   0  0  0  0  0  0  0  0  0  0  0  0
    0.8255    1.2684    0.0000 N   0  3  0  0  0  0  0  0  0  0  0  0
    1.0572    0.3415    0.0000 C   0  0  0  0  0  0  0  0  0  0  0  0
    1.8615    0.5251    0.0000 C   0  0  0  0  0  0  0  0  0  0  0  0
    2.2195    1.2684    0.0000 C   0  0  0  0  0  0  0  0  0  0  0  0
    1.8615    2.0117    0.0000 C   0  0  0  0  0  0  0  0  0  0  0  0
    1.0572    2.1953    0.0000 C   0  0  0  0  0  0  0  0  0  0  0  0
    0.4122    1.6809    0.0000 C   0  0  0  0  0  0  0  0  0  0  0  0
    0.4122    0.8559    0.0000 C   0  0  0  0  0  0  0  0  0  0  0  0
   -0.3023    1.2684    0.0000 O   0  0  0  0  0  0  0  0  0  0  0  0
    3.0445    1.2684    0.0000 O   0  0  0  0  0  0  0  0  0  0  0  0
    3.4570    1.9829    0.0000 C   0  0  0  0  0  0  0  0  0  0  0  0
    3.0445    2.6973    0.0000 O   0  0  0  0  0  0  0  0  0  0  0  0
    4.2820    1.9829    0.0000 C   0  0  0  0  0  0  0  0  0  0  0  0
    5.1070    1.9829    0.0000 C   0  0  0  0  0  0  0  0  0  0  0  0
    5.5919    2.6503    0.0000 C   0  0  0  0  0  0  0  0  0  0  0  0
    6.3765    2.3954    0.0000 C   0  0  0  0  0  0  0  0  0  0  0  0
    6.3765    1.5704    0.0000 C   0  0  0  0  0  0  0  0  0  0  0  0
    5.5919    1.3154    0.0000 S   0  0  0  0  0  0  0  0  0  0  0  0
    4.2820    1.1579    0.0000 C   0  0  0  0  0  0  0  0  0  0  0  0
    4.9494    0.6729    0.0000 C   0  0  0  0  0  0  0  0  0  0  0  0
    4.6945   -0.1117    0.0000 C   0  0  0  0  0  0  0  0  0  0  0  0
    3.8695   -0.1117    0.0000 C   0  0  0  0  0  0  0  0  0  0  0  0
    3.6145    0.6729    0.0000 S   0  0  0  0  0  0  0  0  0  0  0  0
    4.2820    2.8079    0.0000 O   0  0  0  0  0  0  0  0  0  0  0  0
    1.5712    0.9155    0.0000 C   0  0  0  0  0  0  0  0  0  0  0  0
  1  2  1  0  0  0  0
  2  3  1  0  0  0  0
  3  4  1  0  0  0  0
  4  5  1  0  0  0  0
  5  6  1  0  0  0  0
  6  7  1  0  0  0  0
  2  7  1  0  0  0  0
  7  8  1  0  0  0  0
  8  9  1  0  0  0  0
  3  9  1  0  0  0  0
  9 10  1  0  0  0  0
  8 10  1  0  0  0  0
  5 11  1  0  0  0  0
 11 12  1  0  0  0  0
 12 13  2  0  0  0  0
 12 14  1  0  0  0  0
 14 15  1  0  0  0  0
 15 16  2  0  0  0  0
 16 17  1  0  0  0  0
 17 18  2  0  0  0  0
 18 19  1  0  0  0  0
 15 19  1  0  0  0  0
 14 20  1  0  0  0  0
 20 21  2  0  0  0  0
 21 22  1  0  0  0  0
 22 23  2  0  0  0  0
 23 24  1  0  0  0  0
 20 24  1  0  0  0  0
 14 25  1  0  0  0  0
  2 26  1  0  0  0  0
M  CHG  1   2   1
M  END
>  <Name>
Tiotropium bromide

>  <CAS>
136310-93-5

>  <Formula>
C19H22BrNO4S2

>  <MolWt>
472.42 

>  <Bioactivity>
Tiotropium is a long-acting, 24 hour, anticholinergic bronchodilator used in the management of chronic obstructive pulmonary disease (COPD). Tiotropium is a muscarinic receptor antagonist, on topical application it acts mainly on M3 muscarinic receptors located in the airways to produce smooth muscle relaxation, thus producing a bronchodilatory effect. 

>  <Pathways>
Neuroscience

>  <Target>
AChR antagonist

>  <Receptor>
Muscarinic AChR

>  <Reference>
1. Hansel TT, Barnes PJ. Drugs Today (Barc). 2002 Sep;38(9):585-600. 

$$$$
75530-68-6
  Mrv1561503291623562D          

 28 29  0  0  0  0            999 V2000
    1.4289   -1.6500    0.0000 C   0  0  0  0  0  0  0  0  0  0  0  0
    1.4289   -2.4750    0.0000 C   0  0  0  0  0  0  0  0  0  0  0  0
    0.7145   -2.8875    0.0000 C   0  0  0  0  0  0  0  0  0  0  0  0
   -0.0000   -2.4750    0.0000 C   0  0  0  0  0  0  0  0  0  0  0  0
   -0.0000   -1.6500    0.0000 C   0  0  0  0  0  0  0  0  0  0  0  0
    0.7145   -1.2375    0.0000 C   0  0  0  0  0  0  0  0  0  0  0  0
    0.7145   -0.4125    0.0000 C   0  0  0  0  0  0  0  0  0  0  0  0
    0.0000    0.0000    0.0000 C   0  0  0  0  0  0  0  0  0  0  0  0
    0.0000    0.8250    0.0000 C   0  0  0  0  0  0  0  0  0  0  0  0
    0.7145    1.2375    0.0000 N   0  0  0  0  0  0  0  0  0  0  0  0
    1.4289    0.8250    0.0000 C   0  0  0  0  0  0  0  0  0  0  0  0
    1.4289   -0.0000    0.0000 C   0  0  0  0  0  0  0  0  0  0  0  0
    2.1434   -0.4125    0.0000 C   0  0  0  0  0  0  0  0  0  0  0  0
    2.8579   -0.0000    0.0000 O   0  0  0  0  0  0  0  0  0  0  0  0
    3.5724   -0.4125    0.0000 C   0  0  0  0  0  0  0  0  0  0  0  0
    4.2868   -0.0000    0.0000 C   0  0  0  0  0  0  0  0  0  0  0  0
    3.5724   -1.2375    0.0000 C   0  0  0  0  0  0  0  0  0  0  0  0
    2.1434   -1.2375    0.0000 O   0  0  0  0  0  0  0  0  0  0  0  0
    2.1434    1.2375    0.0000 C   0  0  0  0  0  0  0  0  0  0  0  0
   -0.7145    1.2375    0.0000 C   0  0  0  0  0  0  0  0  0  0  0  0
   -1.4289    1.6500    0.0000 N   0  0  0  0  0  0  0  0  0  0  0  0
   -0.7145   -0.4125    0.0000 C   0  0  0  0  0  0  0  0  0  0  0  0
   -0.7145   -1.2375    0.0000 O   0  0  0  0  0  0  0  0  0  0  0  0
   -1.4289   -1.6500    0.0000 C   0  0  0  0  0  0  0  0  0  0  0  0
   -1.4289    0.0000    0.0000 O   0  0  0  0  0  0  0  0  0  0  0  0
    2.1434   -2.8875    0.0000 N   0  3  0  0  0  0  0  0  0  0  0  0
    2.8579   -2.4750    0.0000 O   0  0  0  0  0  0  0  0  0  0  0  0
    2.1434   -3.7125    0.0000 O   0  5  0  0  0  0  0  0  0  0  0  0
  1  2  2  0  0  0  0
  2  3  1  0  0  0  0
  3  4  2  0  0  0  0
  4  5  1  0  0  0  0
  5  6  2  0  0  0  0
  1  6  1  0  0  0  0
  6  7  1  0  0  0  0
  7  8  1  0  0  0  0
  8  9  2  0  0  0  0
  9 10  1  0  0  0  0
 10 11  1  0  0  0  0
 11 12  2  0  0  0  0
  7 12  1  0  0  0  0
 12 13  1  0  0  0  0
 13 14  1  0  0  0  0
 14 15  1  0  0  0  0
 15 16  1  0  0  0  0
 15 17  1  0  0  0  0
 13 18  2  0  0  0  0
 11 19  1  0  0  0  0
  9 20  1  0  0  0  0
 20 21  3  0  0  0  0
  8 22  1  0  0  0  0
 22 23  1  0  0  0  0
 23 24  1  0  0  0  0
 22 25  2  0  0  0  0
  2 26  1  0  0  0  0
 26 27  2  0  0  0  0
 26 28  1  0  0  0  0
M  CHG  2  26   1  28  -1
M  END
>  <Name>
Nilvadipine

>  <CAS>
75530-68-6

>  <Formula>
C19H19N3O6

>  <MolWt>
385.38 

>  <Bioactivity>
Nilvadipine is a calcium channel blocker (CCB) for treatment of hypertension. from DrugBan

>  <Pathways>
Membrane Transporter/Ion Channel

>  <Target>
Calcium Channel inhibitor

>  <Receptor>
Calcium Channel

>  <Reference>
1. Nomoto A, et al. Atherosclerosis, 1988, 72(2-3), 213-219.

$$$$
130018-77-8
  Mrv1561503291623562D          

 27 29  0  0  1  0            999 V2000
   -5.0013   -4.5375    0.0000 C   0  0  1  0  0  0  0  0  0  0  0  0
   -4.2868   -4.1250    0.0000 N   0  0  0  0  0  0  0  0  0  0  0  0
   -4.2868   -3.3000    0.0000 C   0  0  0  0  0  0  0  0  0  0  0  0
   -3.5724   -2.8875    0.0000 C   0  0  0  0  0  0  0  0  0  0  0  0
   -2.8579   -3.3000    0.0000 N   0  0  0  0  0  0  0  0  0  0  0  0
   -2.1434   -2.8875    0.0000 C   0  0  0  0  0  0  0  0  0  0  0  0
   -1.4289   -3.3000    0.0000 C   0  0  0  0  0  0  0  0  0  0  0  0
   -0.7145   -2.8875    0.0000 O   0  0  0  0  0  0  0  0  0  0  0  0
   -0.0000   -3.3000    0.0000 C   0  0  0  0  0  0  0  0  0  0  0  0
    0.7145   -2.8875    0.0000 C   0  0  0  0  0  0  0  0  0  0  0  0
    1.4289   -3.3000    0.0000 O   0  0  0  0  0  0  0  0  0  0  0  0
    0.7145   -2.0625    0.0000 O   0  0  0  0  0  0  0  0  0  0  0  0
   -2.8579   -4.1250    0.0000 C   0  0  0  0  0  0  0  0  0  0  0  0
   -3.5724   -4.5375    0.0000 C   0  0  0  0  0  0  0  0  0  0  0  0
   -5.7158   -4.1250    0.0000 C   0  0  0  0  0  0  0  0  0  0  0  0
   -6.4302   -4.5375    0.0000 C   0  0  0  0  0  0  0  0  0  0  0  0
   -7.1447   -4.1250    0.0000 C   0  0  0  0  0  0  0  0  0  0  0  0
   -7.1447   -3.3000    0.0000 C   0  0  0  0  0  0  0  0  0  0  0  0
   -6.4302   -2.8875    0.0000 C   0  0  0  0  0  0  0  0  0  0  0  0
   -5.7158   -3.3000    0.0000 C   0  0  0  0  0  0  0  0  0  0  0  0
   -7.8592   -2.8875    0.0000 Cl  0  0  0  0  0  0  0  0  0  0  0  0
   -5.0013   -5.3625    0.0000 C   0  0  0  0  0  0  0  0  0  0  0  0
   -4.2868   -5.7750    0.0000 C   0  0  0  0  0  0  0  0  0  0  0  0
   -4.2868   -6.6000    0.0000 C   0  0  0  0  0  0  0  0  0  0  0  0
   -5.0013   -7.0125    0.0000 C   0  0  0  0  0  0  0  0  0  0  0  0
   -5.7158   -6.6000    0.0000 C   0  0  0  0  0  0  0  0  0  0  0  0
   -5.7158   -5.7750    0.0000 C   0  0  0  0  0  0  0  0  0  0  0  0
  1  2  1  6  0  0  0
  2  3  1  0  0  0  0
  3  4  1  0  0  0  0
  4  5  1  0  0  0  0
  5  6  1  0  0  0  0
  6  7  1  0  0  0  0
  7  8  1  0  0  0  0
  8  9  1  0  0  0  0
  9 10  1  0  0  0  0
 10 11  1  0  0  0  0
 10 12  2  0  0  0  0
  5 13  1  0  0  0  0
 13 14  1  0  0  0  0
  2 14  1  0  0  0  0
  1 15  1  0  0  0  0
 15 16  2  0  0  0  0
 16 17  1  0  0  0  0
 17 18  2  0  0  0  0
 18 19  1  0  0  0  0
 19 20  2  0  0  0  0
 15 20  1  0  0  0  0
 18 21  1  0  0  0  0
  1 22  1  0  0  0  0
 22 23  2  0  0  0  0
 23 24  1  0  0  0  0
 24 25  2  0  0  0  0
 25 26  1  0  0  0  0
 26 27  2  0  0  0  0
 22 27  1  0  0  0  0
M  END
>  <Name>
Levocetirizine

>  <CAS>
130018-77-8

>  <Formula>
C21H27Cl3N2O2

>  <MolWt>
388.89 

>  <Bioactivity>
Levocetirizine is a Histamine-1 Receptor Antagonist. The mechanism of action of levocetirizine is as a Histamine H1 Receptor Antagonist. 

>  <Pathways>
Neuroscience

>  <Target>
Histamine Receptor antagonist

>  <Receptor>
Histamine H1 receptor

>  <Reference>
1. Pasquali M, et al. Clin Exp Allergy. 2006 Sep;36(9):1161-7.

$$$$
T1560
  Mrv1561503291623562D          

 26 29  0  0  1  0            999 V2000
    0.7475   -2.9779    0.0000 C   0  0  1  0  0  0  0  0  0  0  0  0
    1.5596   -2.8327    0.0000 C   0  0  1  0  0  0  0  0  0  0  0  0
    2.0914   -3.4634    0.0000 C   0  0  1  0  0  0  0  0  0  0  0  0
    2.9035   -3.3182    0.0000 C   0  0  2  0  0  0  0  0  0  0  0  0
    3.1838   -2.5422    0.0000 C   0  0  0  0  0  0  0  0  0  0  0  0
    3.9960   -2.3970    0.0000 C   0  0  0  0  0  0  0  0  0  0  0  0
    4.5278   -3.0277    0.0000 C   0  0  0  0  0  0  0  0  0  0  0  0
    5.3399   -2.8825    0.0000 O   0  0  0  0  0  0  0  0  0  0  0  0
    4.2475   -3.8037    0.0000 C   0  0  0  0  0  0  0  0  0  0  0  0
    3.4354   -3.9489    0.0000 C   0  0  0  0  0  0  0  0  0  0  0  0
    2.6520   -1.9115    0.0000 C   0  0  0  0  0  0  0  0  0  0  0  0
    1.8399   -2.0567    0.0000 C   0  0  0  0  0  0  0  0  0  0  0  0
    2.6232   -4.0941    0.0000 C   0  0  0  0  0  0  0  0  0  0  0  0
    1.8111   -4.2393    0.0000 C   0  0  1  0  0  0  0  0  0  0  0  0
    2.3429   -4.8700    0.0000 O   0  0  0  0  0  0  0  0  0  0  0  0
    0.9990   -4.3845    0.0000 C   0  0  0  0  0  0  0  0  0  0  0  0
    0.4672   -3.7538    0.0000 C   0  0  2  0  0  0  0  0  0  0  0  0
   -0.3574   -3.7270    0.0000 C   0  0  2  0  0  0  0  0  0  0  0  0
   -1.1695   -3.8722    0.0000 C   0  0  0  0  0  0  0  0  0  0  0  0
   -1.7013   -3.2415    0.0000 C   0  0  0  0  0  0  0  0  0  0  0  0
   -2.5134   -3.3867    0.0000 O   0  0  0  0  0  0  0  0  0  0  0  0
   -1.4498   -4.6481    0.0000 O   0  0  0  0  0  0  0  0  0  0  0  0
   -0.2978   -4.5498    0.0000 O   0  0  0  0  0  0  0  0  0  0  0  0
   -0.5867   -2.9345    0.0000 C   0  0  0  0  0  0  0  0  0  0  0  0
    0.0962   -2.4715    0.0000 C   0  0  0  0  0  0  0  0  0  0  0  0
    0.1073   -4.4962    0.0000 C   0  0  0  0  0  0  0  0  0  0  0  0
  1  2  1  0  0  0  0
  2  3  1  0  0  0  0
  3  4  1  0  0  0  0
  4  5  1  0  0  0  0
  5  6  2  0  0  0  0
  6  7  1  0  0  0  0
  7  8  2  0  0  0  0
  7  9  1  0  0  0  0
  9 10  2  0  0  0  0
  4 10  1  0  0  0  0
  5 11  1  0  0  0  0
 11 12  1  0  0  0  0
  2 12  1  6  0  0  0
  4 13  1  1  0  0  0
  3 14  1  1  0  0  0
 14 15  1  1  0  0  0
 14 16  1  0  0  0  0
 16 17  1  0  0  0  0
  1 17  1  0  0  0  0
 17 18  1  0  0  0  0
 18 19  1  1  0  0  0
 19 20  1  0  0  0  0
 20 21  1  0  0  0  0
 19 22  2  0  0  0  0
 18 23  1  6  0  0  0
 18 24  1  0  0  0  0
 24 25  1  0  0  0  0
  1 25  1  1  0  0  0
 17 26  1  1  0  0  0
M  END
>  <Name>
Prednisolone

>  <CAS>
50-24-8

>  <Formula>
C21H28O5

>  <MolWt>
360.44 

>  <Bioactivity>
Prednisolone Acetate is a synthetic corticosteroid drug that is particularly effective as an immunosuppressant agent.

>  <Pathways>
Endocrinology/ Hormones

>  <Target>
Glucocorticoid Receptor antagonist

>  <Receptor>
Glucocorticoid Receptor

>  <Reference>
1. Ikonomidis I, et al. Heart. 2009 Sep;95(18):1502-7.

$$$$
T1625
  Mrv1561503291623562D          

 27 27  0  0  0  0            999 V2000
    0.4125    0.0000    0.0000 H   0  3  0  0  0  0  0  0  0  0  0  0
    6.3420   -1.1385    0.0000 C   0  0  0  0  0  0  0  0  0  0  0  0
    7.0565   -0.7260    0.0000 C   0  0  0  0  0  0  0  0  0  0  0  0
    7.0565    0.0990    0.0000 C   0  0  0  0  0  0  0  0  0  0  0  0
    6.3420    0.5115    0.0000 C   0  0  0  0  0  0  0  0  0  0  0  0
    6.3420    1.3365    0.0000 F   0  0  0  0  0  0  0  0  0  0  0  0
    5.6275    0.0990    0.0000 C   0  0  0  0  0  0  0  0  0  0  0  0
    5.6275   -0.7260    0.0000 C   0  0  0  0  0  0  0  0  0  0  0  0
    4.9131   -1.1385    0.0000 F   0  0  0  0  0  0  0  0  0  0  0  0
    4.9131    0.5115    0.0000 N   0  0  0  0  0  0  0  0  0  0  0  0
    4.1986    0.0990    0.0000 C   0  0  0  0  0  0  0  0  0  0  0  0
    3.4841    0.5115    0.0000 C   0  0  0  0  0  0  0  0  0  0  0  0
    3.4841    1.3365    0.0000 N   0  0  0  0  0  0  0  0  0  0  0  0
    4.1986    1.7490    0.0000 C   0  0  0  0  0  0  0  0  0  0  0  0
    4.9131    1.3365    0.0000 C   0  0  0  0  0  0  0  0  0  0  0  0
    2.7696    0.0990    0.0000 C   0  0  0  0  0  0  0  0  0  0  0  0
    7.7709    0.5115    0.0000 N   0  0  0  0  0  0  0  0  0  0  0  0
    7.7709    1.3365    0.0000 C   0  0  0  0  0  0  0  0  0  0  0  0
    8.4854    1.7490    0.0000 C   0  0  0  0  0  0  0  0  0  0  0  0
    8.4854    0.0990    0.0000 C   0  0  0  0  0  0  0  0  0  0  0  0
    8.4854   -0.7260    0.0000 C   0  0  0  0  0  0  0  0  0  0  0  0
    7.7709   -1.1385    0.0000 C   0  0  0  0  0  0  0  0  0  0  0  0
    7.7709   -1.9635    0.0000 O   0  0  0  0  0  0  0  0  0  0  0  0
    9.1999   -1.1385    0.0000 C   0  0  0  0  0  0  0  0  0  0  0  0
    9.9144   -0.7260    0.0000 O   0  0  0  0  0  0  0  0  0  0  0  0
    9.1999   -1.9635    0.0000 O   0  0  0  0  0  0  0  0  0  0  0  0
   -0.4125    0.0000    0.0000 Cl  0  5  0  0  0  0  0  0  0  0  0  0
  2  3  2  0  0  0  0
  3  4  1  0  0  0  0
  4  5  2  0  0  0  0
  5  6  1  0  0  0  0
  5  7  1  0  0  0  0
  7  8  2  0  0  0  0
  2  8  1  0  0  0  0
  8  9  1  0  0  0  0
  7 10  1  0  0  0  0
 10 11  1  0  0  0  0
 11 12  1  0  0  0  0
 12 13  1  0  0  0  0
 13 14  1  0  0  0  0
 14 15  1  0  0  0  0
 10 15  1  0  0  0  0
 12 16  1  0  0  0  0
  4 17  1  0  0  0  0
 17 18  1  0  0  0  0
 18 19  1  0  0  0  0
 17 20  1  0  0  0  0
 20 21  2  0  0  0  0
 21 22  1  0  0  0  0
  3 22  1  0  0  0  0
 22 23  2  0  0  0  0
 21 24  1  0  0  0  0
 24 25  1  0  0  0  0
 24 26  2  0  0  0  0
M  CHG  2   1   1  27  -1
M  END
>  <Name>
Lomefloxacin HCl

>  <CAS>
98079-52-8

>  <Formula>
C17H20ClF2N3O3

>  <MolWt>
387.81 

>  <Bioactivity>
Lomefloxacin hydrochloride (Maxaquin) is a hydrochloride salt of lomefloxacin and is a fluoroquinolone antibiotic.Lomefloxacin hydrochloride (Maxaquin) is used to treat bacterial infections including bronchitis and urinary tract infections. Lomefloxacin hydrochloride (Maxaquin) is also used to prevent urinary tract infections prior to surgery.

>  <Pathways>
DNA Damage/DNA Repair

>  <Target>
Topoisomerase inhibitor

>  <Receptor>
Topoisomerase II

>  <Reference>
1. Takenouchi T, et al. Antimicrob Agents Chemother. 1995 Jul;39(7):1414-8. 

$$$$
T0034
  Mrv1561503291623562D          

 29 32  0  0  1  0            999 V2000
    3.9629    0.9934    0.0000 C   0  0  2  0  0  0  0  0  0  0  0  0
    3.6826    0.2174    0.0000 C   0  0  2  0  0  0  0  0  0  0  0  0
    2.8705    0.0722    0.0000 C   0  0  1  0  0  0  0  0  0  0  0  0
    2.3387    0.7029    0.0000 C   0  0  1  0  0  0  0  0  0  0  0  0
    1.5266    0.5577    0.0000 C   0  0  2  0  0  0  0  0  0  0  0  0
    1.2463   -0.2182    0.0000 C   0  0  0  0  0  0  0  0  0  0  0  0
    0.4342   -0.3634    0.0000 C   0  0  0  0  0  0  0  0  0  0  0  0
   -0.0976    0.2673    0.0000 C   0  0  0  0  0  0  0  0  0  0  0  0
   -0.9098    0.1221    0.0000 O   0  0  0  0  0  0  0  0  0  0  0  0
    0.1827    1.0432    0.0000 C   0  0  0  0  0  0  0  0  0  0  0  0
    0.9948    1.1884    0.0000 C   0  0  0  0  0  0  0  0  0  0  0  0
    1.7781   -0.8489    0.0000 C   0  0  0  0  0  0  0  0  0  0  0  0
    2.5902   -0.7037    0.0000 C   0  0  0  0  0  0  0  0  0  0  0  0
    1.8069    1.3336    0.0000 C   0  0  0  0  0  0  0  0  0  0  0  0
    2.6190    1.4789    0.0000 C   0  0  0  0  0  0  0  0  0  0  0  0
    3.4311    1.6241    0.0000 C   0  0  0  0  0  0  0  0  0  0  0  0
    2.0872    2.1096    0.0000 O   0  0  0  0  0  0  0  0  0  0  0  0
    4.3340   -0.2889    0.0000 C   0  0  0  0  0  0  0  0  0  0  0  0
    5.0168    0.1741    0.0000 C   0  0  0  0  0  0  0  0  0  0  0  0
    4.7875    0.9666    0.0000 C   0  0  2  0  0  0  0  0  0  0  0  0
    5.5484    1.2854    0.0000 C   0  0  0  0  0  0  0  0  0  0  0  0
    6.2050    0.7859    0.0000 C   0  0  0  0  0  0  0  0  0  0  0  0
    6.9659    1.1048    0.0000 O   0  0  0  0  0  0  0  0  0  0  0  0
    7.6225    0.6053    0.0000 C   0  0  0  0  0  0  0  0  0  0  0  0
    8.3834    0.9242    0.0000 C   0  0  0  0  0  0  0  0  0  0  0  0
    7.5182   -0.2131    0.0000 O   0  0  0  0  0  0  0  0  0  0  0  0
    5.6527    2.1038    0.0000 O   0  0  0  0  0  0  0  0  0  0  0  0
    4.9089    1.7826    0.0000 O   0  0  0  0  0  0  0  0  0  0  0  0
    4.3228    1.7357    0.0000 C   0  0  0  0  0  0  0  0  0  0  0  0
  1  2  1  0  0  0  0
  2  3  1  0  0  0  0
  3  4  1  0  0  0  0
  4  5  1  0  0  0  0
  5  6  1  0  0  0  0
  6  7  2  0  0  0  0
  7  8  1  0  0  0  0
  8  9  2  0  0  0  0
  8 10  1  0  0  0  0
 10 11  1  0  0  0  0
  5 11  1  0  0  0  0
  6 12  1  0  0  0  0
 12 13  1  0  0  0  0
  3 13  1  6  0  0  0
  5 14  1  1  0  0  0
  4 15  1  1  0  0  0
 15 16  1  0  0  0  0
  1 16  1  0  0  0  0
 15 17  2  0  0  0  0
  2 18  1  1  0  0  0
 18 19  1  0  0  0  0
 19 20  1  0  0  0  0
  1 20  1  0  0  0  0
 20 21  1  1  0  0  0
 21 22  1  0  0  0  0
 22 23  1  0  0  0  0
 23 24  1  0  0  0  0
 24 25  1  0  0  0  0
 24 26  2  0  0  0  0
 21 27  2  0  0  0  0
 20 28  1  6  0  0  0
  1 29  1  1  0  0  0
M  END
>  <Name>
Cortisone acetate

>  <CAS>
50-04-4

>  <Formula>
C23H30O6

>  <MolWt>
402.49 

>  <Bioactivity>
Cortisone acetate is a steroid hormone that has both glucocoriticoid and mineral corticoid activities. Corticosteroids are used to provide relief for inflamed areas of the body. They lessen swelling, redness, itching, and allergic reactions. They are often used as part of the treatment for a number of different diseases, such as severe allergies or skin problems, asthma, or arthritis. Endogenous glucocorticoids and some synthetic corticoids have high affinity to the protein transcortin (also called CBG, corticosteroid- binding protein), whereas all of them bind albumin. Glucocorticoids also bind to the cytosolic glucocorticoid receptor.

>  <Pathways>
Endocrinology/ Hormones

>  <Target>
Glucocorticoid Receptor agonist

>  <Receptor>
Glucocorticoid Receptor

>  <Reference>
1. Grossman R, et al. Ann N Y Acad Sci. 2006, 1071:410-21.

$$$$
T0127
  Mrv1561503291623562D          

 34 36  0  0  0  0            999 V2000
    4.2868   -3.3000    0.0000 C   0  0  0  0  0  0  0  0  0  0  0  0
    4.2868   -4.1250    0.0000 C   0  0  0  0  0  0  0  0  0  0  0  0
    5.0013   -4.5375    0.0000 C   0  0  0  0  0  0  0  0  0  0  0  0
    5.7158   -4.1250    0.0000 C   0  0  0  0  0  0  0  0  0  0  0  0
    6.4302   -4.5375    0.0000 N   0  0  0  0  0  0  0  0  0  0  0  0
    7.1447   -4.1250    0.0000 C   0  0  0  0  0  0  0  0  0  0  0  0
    7.8592   -4.5375    0.0000 N   0  0  0  0  0  0  0  0  0  0  0  0
    8.6129   -4.2019    0.0000 C   0  0  0  0  0  0  0  0  0  0  0  0
    9.1649   -4.8150    0.0000 C   0  0  0  0  0  0  0  0  0  0  0  0
    8.7524   -5.5295    0.0000 C   0  0  0  0  0  0  0  0  0  0  0  0
    7.9454   -5.3580    0.0000 C   0  0  0  0  0  0  0  0  0  0  0  0
    9.0879   -6.2832    0.0000 C   0  0  0  0  0  0  0  0  0  0  0  0
    9.9854   -4.7288    0.0000 C   0  0  0  0  0  0  0  0  0  0  0  0
   10.4703   -5.3962    0.0000 C   0  0  0  0  0  0  0  0  0  0  0  0
    8.7844   -3.3950    0.0000 O   0  0  0  0  0  0  0  0  0  0  0  0
    7.1447   -3.3000    0.0000 O   0  0  0  0  0  0  0  0  0  0  0  0
    3.5724   -4.5375    0.0000 C   0  0  0  0  0  0  0  0  0  0  0  0
    2.8579   -4.1250    0.0000 C   0  0  0  0  0  0  0  0  0  0  0  0
    2.8579   -3.3000    0.0000 C   0  0  0  0  0  0  0  0  0  0  0  0
    3.5724   -2.8875    0.0000 C   0  0  0  0  0  0  0  0  0  0  0  0
    2.1434   -2.8875    0.0000 S   0  0  0  0  0  0  0  0  0  0  0  0
    1.4289   -2.4750    0.0000 N   0  0  0  0  0  0  0  0  0  0  0  0
    1.4289   -1.6500    0.0000 C   0  0  0  0  0  0  0  0  0  0  0  0
    0.7145   -1.2375    0.0000 N   0  0  0  0  0  0  0  0  0  0  0  0
    0.7145   -0.4125    0.0000 C   0  0  0  0  0  0  0  0  0  0  0  0
    0.0000    0.0000    0.0000 C   0  0  0  0  0  0  0  0  0  0  0  0
    0.0000    0.8250    0.0000 C   0  0  0  0  0  0  0  0  0  0  0  0
    0.7145    1.2375    0.0000 C   0  0  0  0  0  0  0  0  0  0  0  0
    0.7145    2.0625    0.0000 C   0  0  0  0  0  0  0  0  0  0  0  0
    1.4289    0.8250    0.0000 C   0  0  0  0  0  0  0  0  0  0  0  0
    1.4289   -0.0000    0.0000 C   0  0  0  0  0  0  0  0  0  0  0  0
    2.1434   -1.2375    0.0000 O   0  0  0  0  0  0  0  0  0  0  0  0
    2.5559   -2.1730    0.0000 O   0  0  0  0  0  0  0  0  0  0  0  0
    1.7309   -3.6020    0.0000 O   0  0  0  0  0  0  0  0  0  0  0  0
  1  2  2  0  0  0  0
  2  3  1  0  0  0  0
  3  4  1  0  0  0  0
  4  5  1  0  0  0  0
  5  6  1  0  0  0  0
  6  7  1  0  0  0  0
  7  8  1  0  0  0  0
  8  9  1  0  0  0  0
  9 10  2  0  0  0  0
 10 11  1  0  0  0  0
  7 11  1  0  0  0  0
 10 12  1  0  0  0  0
  9 13  1  0  0  0  0
 13 14  1  0  0  0  0
  8 15  2  0  0  0  0
  6 16  2  0  0  0  0
  2 17  1  0  0  0  0
 17 18  2  0  0  0  0
 18 19  1  0  0  0  0
 19 20  2  0  0  0  0
  1 20  1  0  0  0  0
 19 21  1  0  0  0  0
 21 22  1  0  0  0  0
 22 23  1  0  0  0  0
 23 24  1  0  0  0  0
 24 25  1  0  0  0  0
 25 26  1  0  0  0  0
 26 27  1  0  0  0  0
 27 28  1  0  0  0  0
 28 29  1  0  0  0  0
 28 30  1  0  0  0  0
 30 31  1  0  0  0  0
 25 31  1  0  0  0  0
 23 32  2  0  0  0  0
 21 33  2  0  0  0  0
 21 34  2  0  0  0  0
M  END
>  <Name>
Glimepiride

>  <CAS>
93479-97-1

>  <Formula>
C24H34N4O5S

>  <MolWt>
490.62 

>  <Bioactivity>
Glimepiride is the first III generation sulphonyl urea it is a very potent sulphonyl urea with long duration of action. 

>  <Pathways>
Membrane Transporter/Ion Channel; Proteases/Proteasome

>  <Target>
DPP-4 inhibitor;Potassium Channel inhibitor

>  <Receptor>
ABCC;DPP-4;Potassium Channel

>  <Reference>
1. Song DK, Ashcroft FM. Br J Pharmacol. 2001 May;133(1):193-9. 

$$$$
63612-50-0
  Mrv1561503291623562D          

 22 23  0  0  0  0            999 V2000
    2.1893   -2.7523    0.0000 C   0  0  0  0  0  0  0  0  0  0  0  0
    1.7044   -3.4197    0.0000 C   0  0  0  0  0  0  0  0  0  0  0  0
    0.8839   -3.3335    0.0000 C   0  0  0  0  0  0  0  0  0  0  0  0
    0.5484   -2.5798    0.0000 C   0  0  0  0  0  0  0  0  0  0  0  0
    1.0333   -1.9124    0.0000 C   0  0  0  0  0  0  0  0  0  0  0  0
    1.8538   -1.9986    0.0000 C   0  0  0  0  0  0  0  0  0  0  0  0
    2.3387   -1.3312    0.0000 N   0  0  0  0  0  0  0  0  0  0  0  0
    2.0837   -0.5465    0.0000 C   0  0  0  0  0  0  0  0  0  0  0  0
    2.7512   -0.0616    0.0000 C   0  0  0  0  0  0  0  0  0  0  0  0
    2.1991    0.5515    0.0000 C   0  0  0  0  0  0  0  0  0  0  0  0
    3.3032    0.5515    0.0000 C   0  0  0  0  0  0  0  0  0  0  0  0
    3.4186   -0.5465    0.0000 N   0  0  0  0  0  0  0  0  0  0  0  0
    3.1637   -1.3312    0.0000 C   0  0  0  0  0  0  0  0  0  0  0  0
    3.6486   -1.9986    0.0000 O   0  0  0  0  0  0  0  0  0  0  0  0
    1.2991   -0.2916    0.0000 O   0  0  0  0  0  0  0  0  0  0  0  0
    0.3990   -4.0009    0.0000 N   0  3  0  0  0  0  0  0  0  0  0  0
    0.7345   -4.7546    0.0000 O   0  0  0  0  0  0  0  0  0  0  0  0
   -0.4215   -3.9147    0.0000 O   0  5  0  0  0  0  0  0  0  0  0  0
    2.0399   -4.1734    0.0000 C   0  0  0  0  0  0  0  0  0  0  0  0
    2.3755   -4.9271    0.0000 F   0  0  0  0  0  0  0  0  0  0  0  0
    1.2863   -4.5089    0.0000 F   0  0  0  0  0  0  0  0  0  0  0  0
    2.7936   -3.8378    0.0000 F   0  0  0  0  0  0  0  0  0  0  0  0
  1  2  2  0  0  0  0
  2  3  1  0  0  0  0
  3  4  2  0  0  0  0
  4  5  1  0  0  0  0
  5  6  2  0  0  0  0
  1  6  1  0  0  0  0
  6  7  1  0  0  0  0
  7  8  1  0  0  0  0
  8  9  1  0  0  0  0
  9 10  1  0  0  0  0
  9 11  1  0  0  0  0
  9 12  1  0  0  0  0
 12 13  1  0  0  0  0
  7 13  1  0  0  0  0
 13 14  2  0  0  0  0
  8 15  2  0  0  0  0
  3 16  1  0  0  0  0
 16 17  2  0  0  0  0
 16 18  1  0  0  0  0
  2 19  1  0  0  0  0
 19 20  1  0  0  0  0
 19 21  1  0  0  0  0
 19 22  1  0  0  0  0
M  CHG  2  16   1  18  -1
M  END
>  <Name>
Nilutamide

>  <CAS>
63612-50-0

>  <Formula>
C12H10F3N3O4

>  <MolWt>
317.22 

>  <Bioactivity>
Nilutamide is an antineoplastic hormonal agent primarily used in the treatment of prostate cancer. Nilutamide is a pure, nonsteroidal anti-androgen with affinity for androgen receptors (but not for progestogen, estrogen, or glucocorticoid receptors). Consequently, Nilutamide blocks the action of androgens of adrenal and testicular origin that stimulate the growth of normal and malignant prostatic tissue. Prostate cancer is mostly androgen-dependent and can be treated with surgical or chemical castration. To date, antiandrogen monotherapy has not consistently been shown to be equivalent to castration. 

>  <Pathways>
Endocrinology/ Hormones

>  <Target>
Androgen Receptor antagonist

>  <Receptor>
Androgen receptor

>  <Reference>
1. Raynaud JP. Am J Clin Oncol. 1988;11 Suppl 2:S132-47.

$$$$
976-71-6
  Mrv1561503291623562D          

 25 29  0  0  0  0            999 V2000
    4.3125    0.9670    0.0000 C   0  0  0  0  0  0  0  0  0  0  0  0
    4.0076    0.2004    0.0000 C   0  0  0  0  0  0  0  0  0  0  0  0
    4.8019   -0.0226    0.0000 C   0  0  0  0  0  0  0  0  0  0  0  0
    4.8353   -0.8469    0.0000 C   0  0  0  0  0  0  0  0  0  0  0  0
    4.0616   -1.1334    0.0000 C   0  0  0  0  0  0  0  0  0  0  0  0
    3.5501   -0.4861    0.0000 C   0  0  0  0  0  0  0  0  0  0  0  0
    2.7268   -0.4330    0.0000 C   0  0  0  0  0  0  0  0  0  0  0  0
    2.2692   -1.1195    0.0000 C   0  0  0  0  0  0  0  0  0  0  0  0
    1.4459   -1.0665    0.0000 C   0  0  0  0  0  0  0  0  0  0  0  0
    1.0802   -0.3270    0.0000 C   0  0  0  0  0  0  0  0  0  0  0  0
    0.2569   -0.2740    0.0000 C   0  0  0  0  0  0  0  0  0  0  0  0
   -0.1088    0.4655    0.0000 C   0  0  0  0  0  0  0  0  0  0  0  0
    0.3487    1.1520    0.0000 C   0  0  0  0  0  0  0  0  0  0  0  0
    1.1720    1.0990    0.0000 C   0  0  0  0  0  0  0  0  0  0  0  0
    1.5378    0.3595    0.0000 C   0  0  0  0  0  0  0  0  0  0  0  0
    2.3611    0.3065    0.0000 C   0  0  0  0  0  0  0  0  0  0  0  0
    2.8186    0.9930    0.0000 C   0  0  0  0  0  0  0  0  0  0  0  0
    3.6419    0.9399    0.0000 C   0  0  0  0  0  0  0  0  0  0  0  0
    1.9953    1.0460    0.0000 C   0  0  0  0  0  0  0  0  0  0  0  0
   -0.9321    0.5185    0.0000 O   0  0  0  0  0  0  0  0  0  0  0  0
    4.7686    0.8017    0.0000 O   0  0  0  0  0  0  0  0  0  0  0  0
    5.5423    1.0882    0.0000 C   0  0  0  0  0  0  0  0  0  0  0  0
    5.7653    1.8824    0.0000 O   0  0  0  0  0  0  0  0  0  0  0  0
    6.0538    0.4409    0.0000 C   0  0  0  0  0  0  0  0  0  0  0  0
    5.5962   -0.2456    0.0000 C   0  0  0  0  0  0  0  0  0  0  0  0
  1  2  1  0  0  0  0
  2  3  1  0  0  0  0
  3  4  1  0  0  0  0
  4  5  1  0  0  0  0
  5  6  1  0  0  0  0
  2  6  1  0  0  0  0
  6  7  1  0  0  0  0
  7  8  1  0  0  0  0
  8  9  2  0  0  0  0
  9 10  1  0  0  0  0
 10 11  2  0  0  0  0
 11 12  1  0  0  0  0
 12 13  1  0  0  0  0
 13 14  1  0  0  0  0
 14 15  1  0  0  0  0
 10 15  1  0  0  0  0
 15 16  1  0  0  0  0
  7 16  1  0  0  0  0
 16 17  1  0  0  0  0
 17 18  1  0  0  0  0
  2 18  1  0  0  0  0
 15 19  1  0  0  0  0
 12 20  2  0  0  0  0
  3 21  1  0  0  0  0
 21 22  1  0  0  0  0
 22 23  2  0  0  0  0
 22 24  1  0  0  0  0
 24 25  1  0  0  0  0
  3 25  1  0  0  0  0
M  END
>  <Name>
Canrenone

>  <CAS>
976-71-6

>  <Formula>
C22H28O3

>  <MolWt>
340.46 

>  <Bioactivity>
A synthetic pregnadiene compound with anti-aldosterone activity.

>  <Pathways>
Endocrinology/ Hormones

>  <Target>
Mineralocorticoid Receptor Antagonist

>  <Receptor>
Mineralocorticoid Receptor

>  <Reference>
1. Derosa G, et al. Ann Med. 2015 Feb;47(1):47-52. 

$$$$
50-50-0
  Mrv1561503291623562D          

 28 32  0  0  1  0            999 V2000
    1.5596   -2.8327    0.0000 C   0  0  1  0  0  0  0  0  0  0  0  0
    2.0914   -3.4634    0.0000 C   0  0  1  0  0  0  0  0  0  0  0  0
    2.9035   -3.3182    0.0000 C   0  0  0  0  0  0  0  0  0  0  0  0
    3.1838   -2.5422    0.0000 C   0  0  0  0  0  0  0  0  0  0  0  0
    3.9960   -2.3970    0.0000 C   0  0  0  0  0  0  0  0  0  0  0  0
    4.5278   -3.0277    0.0000 C   0  0  0  0  0  0  0  0  0  0  0  0
    5.3399   -2.8825    0.0000 O   0  0  0  0  0  0  0  0  0  0  0  0
    5.8717   -3.5132    0.0000 C   0  0  0  0  0  0  0  0  0  0  0  0
    6.6838   -3.3680    0.0000 C   0  0  0  0  0  0  0  0  0  0  0  0
    6.9641   -2.5921    0.0000 C   0  0  0  0  0  0  0  0  0  0  0  0
    7.7763   -2.4469    0.0000 C   0  0  0  0  0  0  0  0  0  0  0  0
    8.3081   -3.0776    0.0000 C   0  0  0  0  0  0  0  0  0  0  0  0
    8.0278   -3.8535    0.0000 C   0  0  0  0  0  0  0  0  0  0  0  0
    7.2157   -3.9987    0.0000 C   0  0  0  0  0  0  0  0  0  0  0  0
    5.5914   -4.2891    0.0000 O   0  0  0  0  0  0  0  0  0  0  0  0
    4.2475   -3.8037    0.0000 C   0  0  0  0  0  0  0  0  0  0  0  0
    3.4354   -3.9489    0.0000 C   0  0  0  0  0  0  0  0  0  0  0  0
    2.6520   -1.9115    0.0000 C   0  0  0  0  0  0  0  0  0  0  0  0
    1.8399   -2.0567    0.0000 C   0  0  0  0  0  0  0  0  0  0  0  0
    1.8111   -4.2393    0.0000 C   0  0  0  0  0  0  0  0  0  0  0  0
    0.9990   -4.3845    0.0000 C   0  0  0  0  0  0  0  0  0  0  0  0
    0.4672   -3.7538    0.0000 C   0  0  1  0  0  0  0  0  0  0  0  0
    0.7475   -2.9779    0.0000 C   0  0  1  0  0  0  0  0  0  0  0  0
    0.0962   -2.4715    0.0000 C   0  0  0  0  0  0  0  0  0  0  0  0
   -0.5867   -2.9345    0.0000 C   0  0  0  0  0  0  0  0  0  0  0  0
   -0.3574   -3.7270    0.0000 C   0  0  2  0  0  0  0  0  0  0  0  0
   -0.8637   -4.3783    0.0000 O   0  0  0  0  0  0  0  0  0  0  0  0
    0.1073   -4.4962    0.0000 C   0  0  0  0  0  0  0  0  0  0  0  0
  1  2  1  0  0  0  0
  2  3  1  0  0  0  0
  3  4  2  0  0  0  0
  4  5  1  0  0  0  0
  5  6  2  0  0  0  0
  6  7  1  0  0  0  0
  7  8  1  0  0  0  0
  8  9  1  0  0  0  0
  9 10  2  0  0  0  0
 10 11  1  0  0  0  0
 11 12  2  0  0  0  0
 12 13  1  0  0  0  0
 13 14  2  0  0  0  0
  9 14  1  0  0  0  0
  8 15  2  0  0  0  0
  6 16  1  0  0  0  0
 16 17  2  0  0  0  0
  3 17  1  0  0  0  0
  4 18  1  0  0  0  0
 18 19  1  0  0  0  0
  1 19  1  6  0  0  0
  2 20  1  1  0  0  0
 20 21  1  0  0  0  0
 21 22  1  0  0  0  0
 22 23  1  0  0  0  0
  1 23  1  0  0  0  0
 23 24  1  1  0  0  0
 24 25  1  0  0  0  0
 25 26  1  0  0  0  0
 22 26  1  0  0  0  0
 26 27  1  1  0  0  0
 22 28  1  1  0  0  0
M  END
>  <Name>
Estradiol benzoate

>  <CAS>
50-50-0

>  <Formula>
C25H28O3

>  <MolWt>
376.49 

>  <Bioactivity>
Estradiol benzoate is an estradiol analog which binds to the human, murine and chicken ER? with IC50 of 22-28 nM.

>  <Pathways>
Endocrinology/ Hormones

>  <Target>
Estrogen/Progestogen Receptor agonist

>  <Receptor>
Estrogen Receptor

>  <Reference>
1. Matthews J, et al. J Steroid Biochem Mol Biol, 2000, 74(4), 223-234.

$$$$
139481-59-7
  Mrv1561503291623562D          

 33 37  0  0  0  0            999 V2000
    3.2789    1.2375    0.0000 C   0  0  0  0  0  0  0  0  0  0  0  0
    3.9934    0.8250    0.0000 C   0  0  0  0  0  0  0  0  0  0  0  0
    3.9934    0.0000    0.0000 C   0  0  0  0  0  0  0  0  0  0  0  0
    3.2789   -0.4125    0.0000 C   0  0  0  0  0  0  0  0  0  0  0  0
    2.5645   -0.0000    0.0000 C   0  0  0  0  0  0  0  0  0  0  0  0
    2.5645    0.8250    0.0000 C   0  0  0  0  0  0  0  0  0  0  0  0
    1.7798    1.0799    0.0000 N   0  0  0  0  0  0  0  0  0  0  0  0
    1.2949    0.4125    0.0000 C   0  0  0  0  0  0  0  0  0  0  0  0
    1.7798   -0.2549    0.0000 N   0  0  0  0  0  0  0  0  0  0  0  0
    1.5249   -1.0396    0.0000 C   0  0  0  0  0  0  0  0  0  0  0  0
    0.7179   -1.2111    0.0000 C   0  0  0  0  0  0  0  0  0  0  0  0
    0.4630   -1.9957    0.0000 C   0  0  0  0  0  0  0  0  0  0  0  0
   -0.3440   -2.1672    0.0000 C   0  0  0  0  0  0  0  0  0  0  0  0
   -0.8960   -1.5541    0.0000 C   0  0  0  0  0  0  0  0  0  0  0  0
   -0.6411   -0.7695    0.0000 C   0  0  0  0  0  0  0  0  0  0  0  0
    0.1659   -0.5980    0.0000 C   0  0  0  0  0  0  0  0  0  0  0  0
   -1.7030   -1.7257    0.0000 C   0  0  0  0  0  0  0  0  0  0  0  0
   -1.9579   -2.5103    0.0000 C   0  0  0  0  0  0  0  0  0  0  0  0
   -2.7649   -2.6818    0.0000 C   0  0  0  0  0  0  0  0  0  0  0  0
   -3.3169   -2.0687    0.0000 C   0  0  0  0  0  0  0  0  0  0  0  0
   -3.0620   -1.2841    0.0000 C   0  0  0  0  0  0  0  0  0  0  0  0
   -2.2550   -1.1126    0.0000 C   0  0  0  0  0  0  0  0  0  0  0  0
   -2.0001   -0.3280    0.0000 C   0  0  0  0  0  0  0  0  0  0  0  0
   -2.4850    0.3395    0.0000 N   0  0  0  0  0  0  0  0  0  0  0  0
   -2.0001    1.0069    0.0000 N   0  0  0  0  0  0  0  0  0  0  0  0
   -1.2155    0.7520    0.0000 N   0  0  0  0  0  0  0  0  0  0  0  0
   -1.2155   -0.0730    0.0000 N   0  0  0  0  0  0  0  0  0  0  0  0
    0.4699    0.4125    0.0000 O   0  0  0  0  0  0  0  0  0  0  0  0
    0.0574    1.1270    0.0000 C   0  0  0  0  0  0  0  0  0  0  0  0
    0.4699    1.8414    0.0000 C   0  0  0  0  0  0  0  0  0  0  0  0
    3.2789   -1.2375    0.0000 C   0  0  0  0  0  0  0  0  0  0  0  0
    3.9934   -1.6500    0.0000 O   0  0  0  0  0  0  0  0  0  0  0  0
    2.5645   -1.6500    0.0000 O   0  0  0  0  0  0  0  0  0  0  0  0
  1  2  2  0  0  0  0
  2  3  1  0  0  0  0
  3  4  2  0  0  0  0
  4  5  1  0  0  0  0
  5  6  2  0  0  0  0
  1  6  1  0  0  0  0
  6  7  1  0  0  0  0
  7  8  2  0  0  0  0
  8  9  1  0  0  0  0
  5  9  1  0  0  0  0
  9 10  1  0  0  0  0
 10 11  1  0  0  0  0
 11 12  2  0  0  0  0
 12 13  1  0  0  0  0
 13 14  2  0  0  0  0
 14 15  1  0  0  0  0
 15 16  2  0  0  0  0
 11 16  1  0  0  0  0
 14 17  1  0  0  0  0
 17 18  2  0  0  0  0
 18 19  1  0  0  0  0
 19 20  2  0  0  0  0
 20 21  1  0  0  0  0
 21 22  2  0  0  0  0
 17 22  1  0  0  0  0
 22 23  1  0  0  0  0
 23 24  2  0  0  0  0
 24 25  1  0  0  0  0
 25 26  1  0  0  0  0
 26 27  2  0  0  0  0
 23 27  1  0  0  0  0
  8 28  1  0  0  0  0
 28 29  1  0  0  0  0
 29 30  1  0  0  0  0
  4 31  1  0  0  0  0
 31 32  1  0  0  0  0
 31 33  2  0  0  0  0
M  END
>  <Name>
Candesartan

>  <CAS>
139481-59-7

>  <Formula>
C24H20N6O3

>  <MolWt>
440.47 

>  <Bioactivity>
Candesartan is an angiotensin-receptor blocker (ARB) that may be used alone or with other agents to treat hypertension. It is administered orally as the prodrug, candesartan cilexetil, which is rapidly converted to its active metabolite, candesartan, during absorption in the gastrointestinal tract. Candesartan lowers blood pressure by antagonizing the renin-angiotensin-aldosterone system (RAAS); it competes with angiotensin II for binding to the type-1 angiotensin II receptor (AT1) subtype and prevents the blood pressure increasing effects of angiotensin II. Unlike angiotensin-converting enzyme (ACE) inhibitors, ARBs do not have the adverse effect of dry cough. Candesartan may be used to treat hypertension, isolated systolic hypertension, left ventricular hypertrophy and diabetic nephropathy. It may also be used as an alternative agent for the treatment of heart failure, systolic dysfunction, myocardial infarction and coronary artery disease. 

>  <Pathways>
Angiogenesis;Endocrinology/ Hormones

>  <Target>
RAAS inhibitor; ACE inhibitor

>  <Receptor>
AT1 receptor

>  <Reference>
1. Fierens F, et al. Eur J Pharmacol, 1999, 367(2-3), 413-422.

$$$$
T1523
  Mrv1561503291623562D          

 46 53  0  0  0  0            999 V2000
   -4.2868   -7.4250    0.0000 C   0  0  0  0  0  0  0  0  0  0  0  0
   -4.2868   -6.6000    0.0000 O   0  0  0  0  0  0  0  0  0  0  0  0
   -3.5724   -6.1875    0.0000 C   0  0  0  0  0  0  0  0  0  0  0  0
   -3.5724   -5.3625    0.0000 C   0  0  0  0  0  0  0  0  0  0  0  0
   -2.8579   -4.9500    0.0000 C   0  0  0  0  0  0  0  0  0  0  0  0
   -2.1434   -5.3625    0.0000 C   0  0  0  0  0  0  0  0  0  0  0  0
   -2.1434   -6.1875    0.0000 C   0  0  0  0  0  0  0  0  0  0  0  0
   -2.8579   -6.6000    0.0000 C   0  0  0  0  0  0  0  0  0  0  0  0
   -2.8579   -7.4250    0.0000 O   0  0  0  0  0  0  0  0  0  0  0  0
   -1.4289   -6.6000    0.0000 O   0  0  0  0  0  0  0  0  0  0  0  0
   -1.4289   -7.4250    0.0000 C   0  0  0  0  0  0  0  0  0  0  0  0
   -2.8579   -4.1250    0.0000 C   0  0  0  0  0  0  0  0  0  0  0  0
   -3.5724   -3.7125    0.0000 C   0  0  0  0  0  0  0  0  0  0  0  0
   -3.5724   -2.8875    0.0000 C   0  0  0  0  0  0  0  0  0  0  0  0
   -4.3570   -2.6326    0.0000 C   0  0  0  0  0  0  0  0  0  0  0  0
   -4.8419   -3.3000    0.0000 O   0  0  0  0  0  0  0  0  0  0  0  0
   -4.3570   -3.9674    0.0000 C   0  0  0  0  0  0  0  0  0  0  0  0
   -4.6119   -4.7521    0.0000 O   0  0  0  0  0  0  0  0  0  0  0  0
   -2.8579   -2.4750    0.0000 C   0  0  0  0  0  0  0  0  0  0  0  0
   -2.1434   -2.8875    0.0000 C   0  0  0  0  0  0  0  0  0  0  0  0
   -1.4289   -2.4750    0.0000 C   0  0  0  0  0  0  0  0  0  0  0  0
   -0.7145   -2.8875    0.0000 C   0  0  0  0  0  0  0  0  0  0  0  0
   -0.7145   -3.7125    0.0000 C   0  0  0  0  0  0  0  0  0  0  0  0
   -1.4289   -4.1250    0.0000 C   0  0  0  0  0  0  0  0  0  0  0  0
   -2.1434   -3.7125    0.0000 C   0  0  0  0  0  0  0  0  0  0  0  0
    0.0702   -3.9674    0.0000 O   0  0  0  0  0  0  0  0  0  0  0  0
    0.5551   -3.3000    0.0000 C   0  0  0  0  0  0  0  0  0  0  0  0
    0.0702   -2.6326    0.0000 O   0  0  0  0  0  0  0  0  0  0  0  0
   -2.8579   -1.6500    0.0000 O   0  0  0  0  0  0  0  0  0  0  0  0
   -2.1434   -1.2375    0.0000 C   0  0  0  0  0  0  0  0  0  0  0  0
   -2.1434   -0.4125    0.0000 C   0  0  0  0  0  0  0  0  0  0  0  0
   -1.4289    0.0000    0.0000 C   0  0  0  0  0  0  0  0  0  0  0  0
   -0.7145   -0.4125    0.0000 C   0  0  0  0  0  0  0  0  0  0  0  0
   -0.7145   -1.2375    0.0000 C   0  0  0  0  0  0  0  0  0  0  0  0
   -1.4289   -1.6500    0.0000 O   0  0  0  0  0  0  0  0  0  0  0  0
   -0.0000   -1.6500    0.0000 C   0  0  0  0  0  0  0  0  0  0  0  0
    0.7145   -1.2375    0.0000 O   0  0  0  0  0  0  0  0  0  0  0  0
    0.7145   -0.4125    0.0000 C   0  0  0  0  0  0  0  0  0  0  0  0
   -0.0000    0.0000    0.0000 O   0  0  0  0  0  0  0  0  0  0  0  0
    1.4289    0.0000    0.0000 C   0  0  0  0  0  0  0  0  0  0  0  0
    1.5152    0.8205    0.0000 C   0  0  0  0  0  0  0  0  0  0  0  0
    2.3221    0.9920    0.0000 C   0  0  0  0  0  0  0  0  0  0  0  0
    2.7346    0.2775    0.0000 C   0  0  0  0  0  0  0  0  0  0  0  0
    2.1826   -0.3356    0.0000 S   0  0  0  0  0  0  0  0  0  0  0  0
   -1.4289    0.8250    0.0000 O   0  0  0  0  0  0  0  0  0  0  0  0
   -2.8579    0.0000    0.0000 O   0  0  0  0  0  0  0  0  0  0  0  0
  1  2  1  0  0  0  0
  2  3  1  0  0  0  0
  3  4  2  0  0  0  0
  4  5  1  0  0  0  0
  5  6  2  0  0  0  0
  6  7  1  0  0  0  0
  7  8  2  0  0  0  0
  3  8  1  0  0  0  0
  8  9  1  0  0  0  0
  7 10  1  0  0  0  0
 10 11  1  0  0  0  0
  5 12  1  0  0  0  0
 12 13  1  0  0  0  0
 13 14  1  0  0  0  0
 14 15  1  0  0  0  0
 15 16  1  0  0  0  0
 16 17  1  0  0  0  0
 13 17  1  0  0  0  0
 17 18  2  0  0  0  0
 14 19  1  0  0  0  0
 19 20  1  0  0  0  0
 20 21  2  0  0  0  0
 21 22  1  0  0  0  0
 22 23  2  0  0  0  0
 23 24  1  0  0  0  0
 24 25  2  0  0  0  0
 12 25  1  0  0  0  0
 20 25  1  0  0  0  0
 23 26  1  0  0  0  0
 26 27  1  0  0  0  0
 27 28  1  0  0  0  0
 22 28  1  0  0  0  0
 19 29  1  0  0  0  0
 29 30  1  0  0  0  0
 30 31  1  0  0  0  0
 31 32  1  0  0  0  0
 32 33  1  0  0  0  0
 33 34  1  0  0  0  0
 34 35  1  0  0  0  0
 30 35  1  0  0  0  0
 34 36  1  0  0  0  0
 36 37  1  0  0  0  0
 37 38  1  0  0  0  0
 38 39  1  0  0  0  0
 33 39  1  0  0  0  0
 38 40  1  0  0  0  0
 40 41  2  0  0  0  0
 41 42  1  0  0  0  0
 42 43  2  0  0  0  0
 43 44  1  0  0  0  0
 40 44  1  0  0  0  0
 32 45  1  0  0  0  0
 31 46  1  0  0  0  0
M  END
>  <Name>
Teniposide

>  <CAS>
29767-20-2

>  <Formula>
C32H32O13S

>  <MolWt>
656.66 

>  <Bioactivity>
A semisynthetic derivative of PODOPHYLLOTOXIN that exhibits antitumor activity. Teniposide inhibits DNA synthesis by forming a complex with topoisomerase II and DNA. This complex induces breaks in double stranded DNA and prevents repair by topoisomerase II binding. Accumulated breaks in DNA prevent cells from entering into the mitotic phase of the cell cycle, and lead to cell death. Teniposide acts primarily in the G2 and S phases of the cycle. 

>  <Pathways>
DNA Damage/DNA Repair

>  <Target>
Topoisomerase inhibitor

>  <Receptor>
Topoisomerase II

>  <Reference>
1. de Lucio B, et al. Cancer Sci. 2005 Nov;96(11):774-83. 

$$$$
T1453
  Mrv1561503291623562D          

 17 15  0  0  0  0            999 V2000
    0.4125    0.0000    0.0000 H   0  3  0  0  0  0  0  0  0  0  0  0
    2.7696   -1.6500    0.0000 C   0  0  0  0  0  0  0  0  0  0  0  0
    3.4841   -1.2375    0.0000 C   0  0  0  0  0  0  0  0  0  0  0  0
    3.4841   -0.4125    0.0000 C   0  0  0  0  0  0  0  0  0  0  0  0
    2.7696    0.0000    0.0000 C   0  0  0  0  0  0  0  0  0  0  0  0
    2.7696    0.8250    0.0000 N   0  0  0  0  0  0  0  0  0  0  0  0
    3.4841    1.2375    0.0000 C   0  0  0  0  0  0  0  0  0  0  0  0
    3.4841    2.0625    0.0000 N   0  0  0  0  0  0  0  0  0  0  0  0
    4.1986    2.4750    0.0000 C   0  0  0  0  0  0  0  0  0  0  0  0
    4.1986    3.3000    0.0000 N   0  0  0  0  0  0  0  0  0  0  0  0
    4.9131    2.0625    0.0000 N   0  0  0  0  0  0  0  0  0  0  0  0
    4.1986    0.8250    0.0000 N   0  0  0  0  0  0  0  0  0  0  0  0
    4.1986   -1.6500    0.0000 C   0  0  0  0  0  0  0  0  0  0  0  0
    4.1986   -2.4750    0.0000 C   0  0  0  0  0  0  0  0  0  0  0  0
    3.4841   -2.8875    0.0000 C   0  0  0  0  0  0  0  0  0  0  0  0
    2.7696   -2.4750    0.0000 C   0  0  0  0  0  0  0  0  0  0  0  0
   -0.4125    0.0000    0.0000 Cl  0  5  0  0  0  0  0  0  0  0  0  0
  2  3  2  0  0  0  0
  3  4  1  0  0  0  0
  4  5  1  0  0  0  0
  5  6  1  0  0  0  0
  6  7  2  3  0  0  0
  7  8  1  0  0  0  0
  8  9  2  3  0  0  0
  9 10  1  0  0  0  0
  9 11  1  0  0  0  0
  7 12  1  0  0  0  0
  3 13  1  0  0  0  0
 13 14  2  0  0  0  0
 14 15  1  0  0  0  0
 15 16  2  0  0  0  0
  2 16  1  0  0  0  0
M  CHG  2   1   1  17  -1
M  END
>  <Name>
Phenformin HCl

>  <CAS>
834-28-6

>  <Formula>
C10H16ClN5

>  <MolWt>
241.72 

>  <Bioactivity>
Phenformin, an anti-diabetic drug, has demonstrated antitumor activity both in vitro and in vivo.

>  <Pathways>
PI3K/Akt/mTOR Signaling; Membrane Transporter/Ion Channel

>  <Target>
AMPK activator;Potassium Channel inhibitor

>  <Receptor>
AMPK;Potassium Channel

>  <Reference>
1. Sakamoto K, et al. Am J Physiol Endocrinol Metab, 2004, 287(2), E310-317.

$$$$
1492-18-8
  Mrv1561503291623562D          

 35 36  0  0  1  0            999 V2000
    0.7145   -6.1875    0.0000 C   0  0  0  0  0  0  0  0  0  0  0  0
   -0.0000   -6.6000    0.0000 N   0  0  0  0  0  0  0  0  0  0  0  0
   -0.7145   -6.1875    0.0000 C   0  0  0  0  0  0  0  0  0  0  0  0
   -1.4289   -6.6000    0.0000 C   0  0  0  0  0  0  0  0  0  0  0  0
   -1.4289   -7.4250    0.0000 C   0  0  0  0  0  0  0  0  0  0  0  0
   -2.1434   -7.8375    0.0000 C   0  0  0  0  0  0  0  0  0  0  0  0
   -2.8579   -7.4250    0.0000 C   0  0  0  0  0  0  0  0  0  0  0  0
   -3.5724   -7.8375    0.0000 N   0  0  0  0  0  0  0  0  0  0  0  0
   -4.2868   -7.4250    0.0000 C   0  0  0  0  0  0  0  0  0  0  0  0
   -5.0013   -7.8375    0.0000 C   0  0  0  0  0  0  0  0  0  0  0  0
   -5.7158   -7.4250    0.0000 N   0  0  0  0  0  0  0  0  0  0  0  0
   -6.4302   -7.8375    0.0000 C   0  0  0  0  0  0  0  0  0  0  0  0
   -6.4302   -8.6625    0.0000 C   0  0  0  0  0  0  0  0  0  0  0  0
   -5.7158   -9.0750    0.0000 N   0  0  0  0  0  0  0  0  0  0  0  0
   -5.0013   -8.6625    0.0000 C   0  0  0  0  0  0  0  0  0  0  0  0
   -7.1447   -9.0750    0.0000 N   0  0  0  0  0  0  0  0  0  0  0  0
   -7.8592   -8.6625    0.0000 C   0  0  0  0  0  0  0  0  0  0  0  0
   -7.8592   -7.8375    0.0000 N   0  0  0  0  0  0  0  0  0  0  0  0
   -7.1447   -7.4250    0.0000 C   0  0  0  0  0  0  0  0  0  0  0  0
   -7.1447   -6.6000    0.0000 O   0  0  0  0  0  0  0  0  0  0  0  0
   -8.5737   -9.0750    0.0000 N   0  0  0  0  0  0  0  0  0  0  0  0
   -5.7158   -6.6000    0.0000 C   0  0  0  0  0  0  0  0  0  0  0  0
   -6.4302   -6.1875    0.0000 O   0  0  0  0  0  0  0  0  0  0  0  0
   -2.8579   -6.6000    0.0000 C   0  0  0  0  0  0  0  0  0  0  0  0
   -2.1434   -6.1875    0.0000 C   0  0  0  0  0  0  0  0  0  0  0  0
   -0.7145   -5.3625    0.0000 O   0  0  0  0  0  0  0  0  0  0  0  0
    1.4289   -6.6000    0.0000 C   0  0  0  0  0  0  0  0  0  0  0  0
    2.1434   -6.1875    0.0000 C   0  0  0  0  0  0  0  0  0  0  0  0
    2.8579   -6.6000    0.0000 C   0  0  0  0  0  0  0  0  0  0  0  0
    2.8579   -7.4250    0.0000 O   0  0  0  0  0  0  0  0  0  0  0  0
    3.5724   -6.1875    0.0000 O   0  5  0  0  0  0  0  0  0  0  0  0
    0.7145   -5.3625    0.0000 C   0  0  0  0  0  0  0  0  0  0  0  0
    1.4289   -4.9500    0.0000 O   0  0  0  0  0  0  0  0  0  0  0  0
   -0.0000   -4.9500    0.0000 O   0  5  0  0  0  0  0  0  0  0  0  0
    4.2868   -5.7750    0.0000 Ca  0  2  0  0  0  0  0  0  0  0  0  0
  1  2  1  0  0  0  0
  2  3  1  0  0  0  0
  3  4  1  0  0  0  0
  4  5  2  0  0  0  0
  5  6  1  0  0  0  0
  6  7  2  0  0  0  0
  7  8  1  0  0  0  0
  8  9  1  0  0  0  0
  9 10  1  0  0  0  0
 10 11  1  0  0  0  0
 11 12  1  0  0  0  0
 12 13  2  0  0  0  0
 13 14  1  0  0  0  0
 14 15  1  0  0  0  0
 10 15  1  0  0  0  0
 13 16  1  0  0  0  0
 16 17  1  0  0  0  0
 17 18  2  0  0  0  0
 18 19  1  0  0  0  0
 12 19  1  0  0  0  0
 19 20  2  0  0  0  0
 17 21  1  0  0  0  0
 11 22  1  0  0  0  0
 22 23  2  0  0  0  0
  7 24  1  0  0  0  0
 24 25  2  0  0  0  0
  4 25  1  0  0  0  0
  3 26  2  0  0  0  0
  1 27  1  0  0  0  0
 27 28  1  0  0  0  0
 28 29  1  0  0  0  0
 29 30  2  0  0  0  0
 29 31  1  0  0  0  0
  1 32  1  0  0  0  0
 32 33  2  0  0  0  0
 32 34  1  0  0  0  0
M  CHG  3  31  -1  34  -1  35   2
M  END
>  <Name>
Calcium folinate

>  <CAS>
1492-18-8

>  <Formula>
C20H21CaN7O7

>  <MolWt>
511.51 

>  <Bioactivity>
Calcium Levofolinate is a calcium salt of folinic acid that is an adjuvant used in cancer chemotherapy.

>  <Pathways>
Vitamin

>  <Target>
VB

>  <Receptor>
TS;VB

>  <Reference>
1. Aschele C, et al. Ann Oncol. 2002 Dec; 13(12):1882-92.

$$$$
111470-99-6
  Mrv1561503291623562D          

 38 39  0  0  0  0            999 V2000
   -1.9768   -0.2479    0.0000 C   0  0  0  0  0  0  0  0  0  0  0  0
   -2.6913    0.1646    0.0000 C   0  0  0  0  0  0  0  0  0  0  0  0
   -2.6913    0.9896    0.0000 C   0  0  0  0  0  0  0  0  0  0  0  0
   -1.9768    1.4021    0.0000 C   0  0  0  0  0  0  0  0  0  0  0  0
   -1.2623    0.9896    0.0000 C   0  0  0  0  0  0  0  0  0  0  0  0
   -1.2623    0.1646    0.0000 C   0  0  0  0  0  0  0  0  0  0  0  0
   -0.5478   -0.2479    0.0000 C   0  0  0  0  0  0  0  0  0  0  0  0
    0.1666    0.1646    0.0000 C   0  0  0  0  0  0  0  0  0  0  0  0
    0.8811   -0.2479    0.0000 C   0  0  0  0  0  0  0  0  0  0  0  0
    0.8811   -1.0729    0.0000 N   0  0  0  0  0  0  0  0  0  0  0  0
    0.1666   -1.4854    0.0000 C   0  0  0  0  0  0  0  0  0  0  0  0
   -0.5478   -1.0729    0.0000 C   0  0  0  0  0  0  0  0  0  0  0  0
   -1.2623   -1.4854    0.0000 C   0  0  0  0  0  0  0  0  0  0  0  0
   -1.2623   -2.3104    0.0000 O   0  0  0  0  0  0  0  0  0  0  0  0
   -1.9768   -2.7229    0.0000 C   0  0  0  0  0  0  0  0  0  0  0  0
   -1.9768   -1.0729    0.0000 O   0  0  0  0  0  0  0  0  0  0  0  0
    0.1666   -2.3104    0.0000 C   0  0  0  0  0  0  0  0  0  0  0  0
    1.5956    0.1646    0.0000 C   0  0  0  0  0  0  0  0  0  0  0  0
    2.3100   -0.2479    0.0000 O   0  0  0  0  0  0  0  0  0  0  0  0
    3.0245    0.1646    0.0000 C   0  0  0  0  0  0  0  0  0  0  0  0
    3.7390   -0.2479    0.0000 C   0  0  0  0  0  0  0  0  0  0  0  0
    4.4535    0.1646    0.0000 N   0  0  0  0  0  0  0  0  0  0  0  0
    0.1666    0.9896    0.0000 C   0  0  0  0  0  0  0  0  0  0  0  0
    0.8811    1.4021    0.0000 O   0  0  0  0  0  0  0  0  0  0  0  0
    0.8811    2.2271    0.0000 C   0  0  0  0  0  0  0  0  0  0  0  0
    1.5956    2.6396    0.0000 C   0  0  0  0  0  0  0  0  0  0  0  0
   -0.5478    1.4021    0.0000 O   0  0  0  0  0  0  0  0  0  0  0  0
   -0.9268    1.7433    0.0000 Cl  0  0  0  0  0  0  0  0  0  0  0  0
    6.3392   -0.3300    0.0000 C   0  0  0  0  0  0  0  0  0  0  0  0
    7.0536    0.0825    0.0000 C   0  0  0  0  0  0  0  0  0  0  0  0
    7.0536    0.9075    0.0000 S   0  0  0  0  0  0  0  0  0  0  0  0
    7.0536    1.7325    0.0000 O   0  0  0  0  0  0  0  0  0  0  0  0
    6.2286    0.9075    0.0000 O   0  0  0  0  0  0  0  0  0  0  0  0
    7.8786    0.9075    0.0000 O   0  0  0  0  0  0  0  0  0  0  0  0
    7.7681   -0.3300    0.0000 C   0  0  0  0  0  0  0  0  0  0  0  0
    7.7681   -1.1550    0.0000 C   0  0  0  0  0  0  0  0  0  0  0  0
    7.0536   -1.5675    0.0000 C   0  0  0  0  0  0  0  0  0  0  0  0
    6.3392   -1.1550    0.0000 C   0  0  0  0  0  0  0  0  0  0  0  0
  1  2  2  0  0  0  0
  2  3  1  0  0  0  0
  3  4  2  0  0  0  0
  4  5  1  0  0  0  0
  5  6  2  0  0  0  0
  1  6  1  0  0  0  0
  6  7  1  0  0  0  0
  7  8  1  0  0  0  0
  8  9  2  0  0  0  0
  9 10  1  0  0  0  0
 10 11  1  0  0  0  0
 11 12  2  0  0  0  0
  7 12  1  0  0  0  0
 12 13  1  0  0  0  0
 13 14  1  0  0  0  0
 14 15  1  0  0  0  0
 13 16  2  0  0  0  0
 11 17  1  0  0  0  0
  9 18  1  0  0  0  0
 18 19  1  0  0  0  0
 19 20  1  0  0  0  0
 20 21  1  0  0  0  0
 21 22  1  0  0  0  0
  8 23  1  0  0  0  0
 23 24  1  0  0  0  0
 24 25  1  0  0  0  0
 25 26  1  0  0  0  0
 23 27  2  0  0  0  0
  5 28  1  0  0  0  0
 29 30  2  0  0  0  0
 30 31  1  0  0  0  0
 31 32  2  0  0  0  0
 31 33  2  0  0  0  0
 31 34  1  0  0  0  0
 30 35  1  0  0  0  0
 35 36  2  0  0  0  0
 36 37  1  0  0  0  0
 37 38  2  0  0  0  0
 29 38  1  0  0  0  0
M  END
>  <Name>
Amlodipine Besylate

>  <CAS>
111470-99-6

>  <Formula>
C26H31ClN2O8S

>  <MolWt>
567.05 

>  <Bioactivity>
Amlodipine Besylate is a long-acting calcium channel blocker, used to lower blood pressure and prevent chest pain.

>  <Pathways>
Membrane Transporter/Ion Channel; Metabolism

>  <Target>
Carbonic anhydrase inhibitor;Calcium Channel inhibitor;PDE inhibitor

>  <Receptor>
CA 1;Calcium Channel;SMPD

>  <Reference>
1. Lee YJ, et al. J Neurochem, 2011, 119(6), 1262-1270.

$$$$
23288-49-5
  Mrv1561503291623562D          

 35 36  0  0  0  0            999 V2000
   -0.0000   -3.3000    0.0000 C   0  0  0  0  0  0  0  0  0  0  0  0
   -0.0000   -4.1250    0.0000 C   0  0  0  0  0  0  0  0  0  0  0  0
    0.7145   -4.5375    0.0000 S   0  0  0  0  0  0  0  0  0  0  0  0
    0.7145   -5.3625    0.0000 C   0  0  0  0  0  0  0  0  0  0  0  0
    0.7145   -6.1875    0.0000 S   0  0  0  0  0  0  0  0  0  0  0  0
    1.4289   -6.6000    0.0000 C   0  0  0  0  0  0  0  0  0  0  0  0
    2.1434   -6.1875    0.0000 C   0  0  0  0  0  0  0  0  0  0  0  0
    2.8579   -6.6000    0.0000 C   0  0  0  0  0  0  0  0  0  0  0  0
    2.8579   -7.4250    0.0000 C   0  0  0  0  0  0  0  0  0  0  0  0
    3.5724   -7.8375    0.0000 O   0  0  0  0  0  0  0  0  0  0  0  0
    2.1434   -7.8375    0.0000 C   0  0  0  0  0  0  0  0  0  0  0  0
    1.4289   -7.4250    0.0000 C   0  0  0  0  0  0  0  0  0  0  0  0
    2.1434   -8.6625    0.0000 C   0  0  0  0  0  0  0  0  0  0  0  0
    2.1434   -9.4875    0.0000 C   0  0  0  0  0  0  0  0  0  0  0  0
    1.3184   -8.6625    0.0000 C   0  0  0  0  0  0  0  0  0  0  0  0
    2.9684   -8.6625    0.0000 C   0  0  0  0  0  0  0  0  0  0  0  0
    3.5724   -6.1875    0.0000 C   0  0  0  0  0  0  0  0  0  0  0  0
    4.2868   -5.7750    0.0000 C   0  0  0  0  0  0  0  0  0  0  0  0
    3.9849   -6.9020    0.0000 C   0  0  0  0  0  0  0  0  0  0  0  0
    3.1599   -5.4730    0.0000 C   0  0  0  0  0  0  0  0  0  0  0  0
    1.5395   -5.3625    0.0000 C   0  0  0  0  0  0  0  0  0  0  0  0
   -0.1105   -5.3625    0.0000 C   0  0  0  0  0  0  0  0  0  0  0  0
   -0.7145   -4.5375    0.0000 C   0  0  0  0  0  0  0  0  0  0  0  0
   -1.4289   -4.1250    0.0000 C   0  0  0  0  0  0  0  0  0  0  0  0
   -1.4289   -3.3000    0.0000 C   0  0  0  0  0  0  0  0  0  0  0  0
   -0.7145   -2.8875    0.0000 C   0  0  0  0  0  0  0  0  0  0  0  0
   -0.7145   -2.0625    0.0000 C   0  0  0  0  0  0  0  0  0  0  0  0
   -0.7145   -1.2375    0.0000 C   0  0  0  0  0  0  0  0  0  0  0  0
    0.1105   -2.0625    0.0000 C   0  0  0  0  0  0  0  0  0  0  0  0
   -1.5395   -2.0625    0.0000 C   0  0  0  0  0  0  0  0  0  0  0  0
   -2.1434   -2.8875    0.0000 O   0  0  0  0  0  0  0  0  0  0  0  0
   -2.1434   -4.5375    0.0000 C   0  0  0  0  0  0  0  0  0  0  0  0
   -2.8579   -4.9500    0.0000 C   0  0  0  0  0  0  0  0  0  0  0  0
   -2.5559   -3.8230    0.0000 C   0  0  0  0  0  0  0  0  0  0  0  0
   -1.7309   -5.2520    0.0000 C   0  0  0  0  0  0  0  0  0  0  0  0
  1  2  2  0  0  0  0
  2  3  1  0  0  0  0
  3  4  1  0  0  0  0
  4  5  1  0  0  0  0
  5  6  1  0  0  0  0
  6  7  2  0  0  0  0
  7  8  1  0  0  0  0
  8  9  2  0  0  0  0
  9 10  1  0  0  0  0
  9 11  1  0  0  0  0
 11 12  2  0  0  0  0
  6 12  1  0  0  0  0
 11 13  1  0  0  0  0
 13 14  1  0  0  0  0
 13 15  1  0  0  0  0
 13 16  1  0  0  0  0
  8 17  1  0  0  0  0
 17 18  1  0  0  0  0
 17 19  1  0  0  0  0
 17 20  1  0  0  0  0
  4 21  1  0  0  0  0
  4 22  1  0  0  0  0
  2 23  1  0  0  0  0
 23 24  2  0  0  0  0
 24 25  1  0  0  0  0
 25 26  2  0  0  0  0
  1 26  1  0  0  0  0
 26 27  1  0  0  0  0
 27 28  1  0  0  0  0
 27 29  1  0  0  0  0
 27 30  1  0  0  0  0
 25 31  1  0  0  0  0
 24 32  1  0  0  0  0
 32 33  1  0  0  0  0
 32 34  1  0  0  0  0
 32 35  1  0  0  0  0
M  END
>  <Name>
Probucol

>  <CAS>
23288-49-5

>  <Formula>
C31H48O2S2

>  <MolWt>
516.84 

>  <Bioactivity>
A drug used to lower LDL and HDL cholesterol yet has little effect on serum-triglyceride or VLDL cholesterol. 

>  <Pathways>
Metabolism

>  <Target>
Lipid

>  <Receptor>
CES1;ABCA1

>  <Reference>
1. Jeon SM, et al. J Biochem Mol Toxicol. 2005, 19(5):336-46. 

$$$$
T0481
  Mrv1561503291623562D          

 43 47  0  0  0  0            999 V2000
   -2.1186    1.8540    0.0000 C   0  0  0  0  0  0  0  0  0  0  0  0
   -1.2936    1.8540    0.0000 C   0  0  0  0  0  0  0  0  0  0  0  0
   -0.8811    1.1395    0.0000 O   0  0  0  0  0  0  0  0  0  0  0  0
   -0.0561    1.1395    0.0000 C   0  0  0  0  0  0  0  0  0  0  0  0
    0.4288    1.8069    0.0000 N   0  0  0  0  0  0  0  0  0  0  0  0
    1.2135    1.5520    0.0000 C   0  0  0  0  0  0  0  0  0  0  0  0
    1.9279    1.9645    0.0000 C   0  0  0  0  0  0  0  0  0  0  0  0
    2.6424    1.5520    0.0000 C   0  0  0  0  0  0  0  0  0  0  0  0
    2.6424    0.7270    0.0000 C   0  0  0  0  0  0  0  0  0  0  0  0
    1.9279    0.3145    0.0000 C   0  0  0  0  0  0  0  0  0  0  0  0
    1.2135    0.7270    0.0000 C   0  0  0  0  0  0  0  0  0  0  0  0
    0.4288    0.4720    0.0000 N   0  0  0  0  0  0  0  0  0  0  0  0
    0.1739   -0.3126    0.0000 C   0  0  0  0  0  0  0  0  0  0  0  0
   -0.6331   -0.4841    0.0000 C   0  0  0  0  0  0  0  0  0  0  0  0
   -0.8880   -1.2687    0.0000 C   0  0  0  0  0  0  0  0  0  0  0  0
   -1.6950   -1.4403    0.0000 C   0  0  0  0  0  0  0  0  0  0  0  0
   -2.2470   -0.8272    0.0000 C   0  0  0  0  0  0  0  0  0  0  0  0
   -1.9921   -0.0425    0.0000 C   0  0  0  0  0  0  0  0  0  0  0  0
   -1.1851    0.1290    0.0000 C   0  0  0  0  0  0  0  0  0  0  0  0
   -3.0540   -0.9987    0.0000 C   0  0  0  0  0  0  0  0  0  0  0  0
   -3.3089   -1.7833    0.0000 C   0  0  0  0  0  0  0  0  0  0  0  0
   -4.1159   -1.9548    0.0000 C   0  0  0  0  0  0  0  0  0  0  0  0
   -4.6679   -1.3417    0.0000 C   0  0  0  0  0  0  0  0  0  0  0  0
   -4.4130   -0.5571    0.0000 C   0  0  0  0  0  0  0  0  0  0  0  0
   -3.6060   -0.3856    0.0000 C   0  0  0  0  0  0  0  0  0  0  0  0
   -3.3511    0.3990    0.0000 C   0  0  0  0  0  0  0  0  0  0  0  0
   -2.5664    0.6540    0.0000 N   0  0  0  0  0  0  0  0  0  0  0  0
   -2.5664    1.4790    0.0000 O   0  0  0  0  0  0  0  0  0  0  0  0
   -3.3511    1.7339    0.0000 C   0  0  0  0  0  0  0  0  0  0  0  0
   -3.6060    2.5185    0.0000 O   0  0  0  0  0  0  0  0  0  0  0  0
   -3.8360    1.0665    0.0000 N   0  5  0  0  0  0  0  0  0  0  0  0
    1.9279   -0.5105    0.0000 C   0  0  0  0  0  0  0  0  0  0  0  0
    1.2135   -0.9230    0.0000 O   0  0  0  0  0  0  0  0  0  0  0  0
    2.6424   -0.9230    0.0000 O   0  0  0  0  0  0  0  0  0  0  0  0
    3.3569   -0.5105    0.0000 C   0  0  0  0  0  0  0  0  0  0  0  0
    4.0714   -0.9230    0.0000 C   0  0  0  0  0  0  0  0  0  0  0  0
    4.8250   -0.5875    0.0000 C   0  0  0  0  0  0  0  0  0  0  0  0
    5.3771   -1.2006    0.0000 O   0  0  0  0  0  0  0  0  0  0  0  0
    4.9646   -1.9150    0.0000 C   0  0  0  0  0  0  0  0  0  0  0  0
    5.3001   -2.6687    0.0000 O   0  0  0  0  0  0  0  0  0  0  0  0
    4.1576   -1.7435    0.0000 O   0  0  0  0  0  0  0  0  0  0  0  0
    4.9966    0.2195    0.0000 C   0  0  0  0  0  0  0  0  0  0  0  0
    7.6163    0.0000    0.0000 K   0  3  0  0  0  0  0  0  0  0  0  0
  1  2  1  0  0  0  0
  2  3  1  0  0  0  0
  3  4  1  0  0  0  0
  4  5  2  0  0  0  0
  5  6  1  0  0  0  0
  6  7  2  0  0  0  0
  7  8  1  0  0  0  0
  8  9  2  0  0  0  0
  9 10  1  0  0  0  0
 10 11  2  0  0  0  0
  6 11  1  0  0  0  0
 11 12  1  0  0  0  0
  4 12  1  0  0  0  0
 12 13  1  0  0  0  0
 13 14  1  0  0  0  0
 14 15  2  0  0  0  0
 15 16  1  0  0  0  0
 16 17  2  0  0  0  0
 17 18  1  0  0  0  0
 18 19  2  0  0  0  0
 14 19  1  0  0  0  0
 17 20  1  0  0  0  0
 20 21  2  0  0  0  0
 21 22  1  0  0  0  0
 22 23  2  0  0  0  0
 23 24  1  0  0  0  0
 24 25  2  0  0  0  0
 20 25  1  0  0  0  0
 25 26  1  0  0  0  0
 26 27  2  0  0  0  0
 27 28  1  0  0  0  0
 28 29  1  0  0  0  0
 29 30  2  0  0  0  0
 29 31  1  0  0  0  0
 26 31  1  0  0  0  0
 10 32  1  0  0  0  0
 32 33  2  0  0  0  0
 32 34  1  0  0  0  0
 34 35  1  0  0  0  0
 35 36  1  0  0  0  0
 36 37  2  0  0  0  0
 37 38  1  0  0  0  0
 38 39  1  0  0  0  0
 39 40  2  0  0  0  0
 39 41  1  0  0  0  0
 36 41  1  0  0  0  0
 37 42  1  0  0  0  0
M  CHG  2  31  -1  43   1
M  END
>  <Name>
Azilsartan kaMedoxoMil

>  <CAS>
863031-24-7

>  <Formula>
C30H23N4O8.K

>  <MolWt>
606.62 

>  <Bioactivity>
Azilsartan medoxomil(TAK 491) is an orally administered angiotensin II receptor type 1 antagonist with IC50 of 0.62 nM, which used in the treatment of adults with essential hypertension.

>  <Pathways>
Angiogenesis

>  <Target>
AGTR inhibitor

>  <Receptor>
AGTR1

>  <Reference>
1. Kawaguchi N, et al. Xenobiotica. 2013 Feb;43(2):182-92. 

$$$$
56392-17-7
  Mrv1561503291623562D          

 48 47  0  0  1  0            999 V2000
    0.3572    0.2063    0.0000 C   0  0  2  0  0  0  0  0  0  0  0  0
    0.3572    1.0313    0.0000 O   0  0  0  0  0  0  0  0  0  0  0  0
   -0.3572   -0.2062    0.0000 C   0  0  1  0  0  0  0  0  0  0  0  0
   -0.3572   -1.0312    0.0000 O   0  0  0  0  0  0  0  0  0  0  0  0
   -1.0717    0.2063    0.0000 C   0  0  0  0  0  0  0  0  0  0  0  0
   -1.7862   -0.2063    0.0000 O   0  0  0  0  0  0  0  0  0  0  0  0
   -1.0717    1.0312    0.0000 O   0  0  0  0  0  0  0  0  0  0  0  0
    1.0717   -0.2062    0.0000 C   0  0  0  0  0  0  0  0  0  0  0  0
    1.7862    0.2063    0.0000 O   0  0  0  0  0  0  0  0  0  0  0  0
    1.0717   -1.0312    0.0000 O   0  0  0  0  0  0  0  0  0  0  0  0
    7.7157   -0.6513    0.0000 C   0  0  0  0  0  0  0  0  0  0  0  0
    7.0012   -0.2388    0.0000 C   0  0  0  0  0  0  0  0  0  0  0  0
    7.0012    0.5862    0.0000 C   0  0  0  0  0  0  0  0  0  0  0  0
    7.7157    0.9987    0.0000 C   0  0  0  0  0  0  0  0  0  0  0  0
    8.4301    0.5862    0.0000 C   0  0  0  0  0  0  0  0  0  0  0  0
    8.4301   -0.2388    0.0000 C   0  0  0  0  0  0  0  0  0  0  0  0
    9.1446   -0.6513    0.0000 O   0  0  0  0  0  0  0  0  0  0  0  0
    9.8591   -0.2388    0.0000 C   0  0  0  0  0  0  0  0  0  0  0  0
   10.5736   -0.6513    0.0000 C   0  0  0  0  0  0  0  0  0  0  0  0
   11.2880   -0.2388    0.0000 C   0  0  0  0  0  0  0  0  0  0  0  0
   12.0025   -0.6513    0.0000 N   0  0  0  0  0  0  0  0  0  0  0  0
   12.7170   -0.2388    0.0000 C   0  0  0  0  0  0  0  0  0  0  0  0
   13.4314   -0.6513    0.0000 C   0  0  0  0  0  0  0  0  0  0  0  0
   12.7170    0.5862    0.0000 C   0  0  0  0  0  0  0  0  0  0  0  0
   10.5736   -1.4763    0.0000 O   0  0  0  0  0  0  0  0  0  0  0  0
    6.2867    0.9987    0.0000 C   0  0  0  0  0  0  0  0  0  0  0  0
    5.5723    0.5862    0.0000 C   0  0  0  0  0  0  0  0  0  0  0  0
    4.8578    0.9987    0.0000 O   0  0  0  0  0  0  0  0  0  0  0  0
    4.1433    0.5862    0.0000 C   0  0  0  0  0  0  0  0  0  0  0  0
   -1.2033   -4.7763    0.0000 C   0  0  0  0  0  0  0  0  0  0  0  0
   -1.9178   -4.3638    0.0000 C   0  0  0  0  0  0  0  0  0  0  0  0
   -1.9178   -3.5388    0.0000 C   0  0  0  0  0  0  0  0  0  0  0  0
   -1.2033   -3.1263    0.0000 C   0  0  0  0  0  0  0  0  0  0  0  0
   -0.4888   -3.5388    0.0000 C   0  0  0  0  0  0  0  0  0  0  0  0
   -0.4888   -4.3638    0.0000 C   0  0  0  0  0  0  0  0  0  0  0  0
    0.2256   -4.7763    0.0000 O   0  0  0  0  0  0  0  0  0  0  0  0
    0.9401   -4.3638    0.0000 C   0  0  0  0  0  0  0  0  0  0  0  0
    1.6546   -4.7763    0.0000 C   0  0  0  0  0  0  0  0  0  0  0  0
    2.3690   -4.3638    0.0000 C   0  0  0  0  0  0  0  0  0  0  0  0
    3.0835   -4.7763    0.0000 N   0  0  0  0  0  0  0  0  0  0  0  0
    3.7980   -4.3638    0.0000 C   0  0  0  0  0  0  0  0  0  0  0  0
    4.5124   -4.7763    0.0000 C   0  0  0  0  0  0  0  0  0  0  0  0
    3.7980   -3.5388    0.0000 C   0  0  0  0  0  0  0  0  0  0  0  0
    1.6546   -5.6013    0.0000 O   0  0  0  0  0  0  0  0  0  0  0  0
   -2.6323   -3.1263    0.0000 C   0  0  0  0  0  0  0  0  0  0  0  0
   -3.3467   -3.5388    0.0000 C   0  0  0  0  0  0  0  0  0  0  0  0
   -4.0612   -3.1263    0.0000 O   0  0  0  0  0  0  0  0  0  0  0  0
   -4.7757   -3.5388    0.0000 C   0  0  0  0  0  0  0  0  0  0  0  0
  1  2  1  1  0  0  0
  1  3  1  0  0  0  0
  3  4  1  1  0  0  0
  3  5  1  0  0  0  0
  5  6  2  0  0  0  0
  5  7  1  0  0  0  0
  1  8  1  0  0  0  0
  8  9  2  0  0  0  0
  8 10  1  0  0  0  0
 11 12  2  0  0  0  0
 12 13  1  0  0  0  0
 13 14  2  0  0  0  0
 14 15  1  0  0  0  0
 15 16  2  0  0  0  0
 11 16  1  0  0  0  0
 16 17  1  0  0  0  0
 17 18  1  0  0  0  0
 18 19  1  0  0  0  0
 19 20  1  0  0  0  0
 20 21  1  0  0  0  0
 21 22  1  0  0  0  0
 22 23  1  0  0  0  0
 22 24  1  0  0  0  0
 19 25  1  0  0  0  0
 13 26  1  0  0  0  0
 26 27  1  0  0  0  0
 27 28  1  0  0  0  0
 28 29  1  0  0  0  0
 30 31  2  0  0  0  0
 31 32  1  0  0  0  0
 32 33  2  0  0  0  0
 33 34  1  0  0  0  0
 34 35  2  0  0  0  0
 30 35  1  0  0  0  0
 35 36  1  0  0  0  0
 36 37  1  0  0  0  0
 37 38  1  0  0  0  0
 38 39  1  0  0  0  0
 39 40  1  0  0  0  0
 40 41  1  0  0  0  0
 41 42  1  0  0  0  0
 41 43  1  0  0  0  0
 38 44  1  0  0  0  0
 32 45  1  0  0  0  0
 45 46  1  0  0  0  0
 46 47  1  0  0  0  0
 47 48  1  0  0  0  0
M  END
>  <Name>
Metoprolol tartrate

>  <CAS>
56392-17-7

>  <Formula>
2(C15H26NO3)(C4H6O8)

>  <MolWt>
684.81 

>  <Bioactivity>
Metoprolol Tartrate is a cardioselective ?-adrenergic receptor blocker.

>  <Pathways>
GPCR/G Protein

>  <Target>
Adrenergic Receptor antagonist

>  <Receptor>
Adrenergic Receptor

>  <Reference>
1. Schafer M, et al. Am J Physiol Cell Physiol. 2000 Aug;279(2):C495-503.

$$$$
85-36-9
  Mrv1561503291623562D          

 16 16  0  0  0  0            999 V2000
    1.4289    0.8250    0.0000 C   0  0  0  0  0  0  0  0  0  0  0  0
    1.4289    0.0000    0.0000 C   0  0  0  0  0  0  0  0  0  0  0  0
    0.7145   -0.4125    0.0000 C   0  0  0  0  0  0  0  0  0  0  0  0
   -0.0000    0.0000    0.0000 C   0  0  0  0  0  0  0  0  0  0  0  0
   -0.0000    0.8250    0.0000 C   0  0  0  0  0  0  0  0  0  0  0  0
    0.7145    1.2375    0.0000 C   0  0  0  0  0  0  0  0  0  0  0  0
    0.7145    2.0625    0.0000 I   0  0  0  0  0  0  0  0  0  0  0  0
   -0.7145    1.2375    0.0000 N   0  0  0  0  0  0  0  0  0  0  0  0
   -0.7145    2.0625    0.0000 C   0  0  0  0  0  0  0  0  0  0  0  0
   -1.4289    2.4750    0.0000 C   0  0  0  0  0  0  0  0  0  0  0  0
    0.0000    2.4750    0.0000 O   0  0  0  0  0  0  0  0  0  0  0  0
   -0.7145   -0.4125    0.0000 I   0  0  0  0  0  0  0  0  0  0  0  0
    0.7145   -1.2375    0.0000 C   0  0  0  0  0  0  0  0  0  0  0  0
    1.4289   -1.6500    0.0000 O   0  0  0  0  0  0  0  0  0  0  0  0
   -0.0000   -1.6500    0.0000 O   0  0  0  0  0  0  0  0  0  0  0  0
    2.1434   -0.4125    0.0000 I   0  0  0  0  0  0  0  0  0  0  0  0
  1  2  2  0  0  0  0
  2  3  1  0  0  0  0
  3  4  2  0  0  0  0
  4  5  1  0  0  0  0
  5  6  2  0  0  0  0
  1  6  1  0  0  0  0
  6  7  1  0  0  0  0
  5  8  1  0  0  0  0
  8  9  1  0  0  0  0
  9 10  1  0  0  0  0
  9 11  2  0  0  0  0
  4 12  1  0  0  0  0
  3 13  1  0  0  0  0
 13 14  2  0  0  0  0
 13 15  1  0  0  0  0
  2 16  1  0  0  0  0
M  END
>  <Name>
Acetrizoic acid

>  <CAS>
85-36-9

>  <Formula>
C9H6I3NO3

>  <MolWt>
556.86 

>  <Bioactivity>
Acetrizoic acid is a molecule used as a contrast medium.

>  <Pathways>
Others

>  <Target>
Others

>  <Receptor>
Others

>  <Reference>
1. MCCONNELL F, MERSEREAU WA. J Can Assoc Radiol. 1964 Mar;15:14-22.

$$$$
T1213
  Mrv1561503291623562D          

 37 39  0  0  1  0            999 V2000
    0.0698   -1.3557    0.0000 C   0  0  0  0  0  0  0  0  0  0  0  0
   -0.6221   -1.8051    0.0000 S   0  0  0  0  0  0  0  0  0  0  0  0
   -1.2633   -1.2859    0.0000 C   0  0  0  0  0  0  0  0  0  0  0  0
   -0.9676   -0.5157    0.0000 C   0  0  0  0  0  0  0  0  0  0  0  0
   -0.1438   -0.5588    0.0000 N   0  0  0  0  0  0  0  0  0  0  0  0
    0.6531   -0.3453    0.0000 C   0  0  0  0  0  0  0  0  0  0  0  0
    1.0656    0.3692    0.0000 O   0  0  0  0  0  0  0  0  0  0  0  0
    0.8666   -1.1422    0.0000 C   0  0  0  0  0  0  0  0  0  0  0  0
    1.5811   -1.5547    0.0000 N   0  0  0  0  0  0  0  0  0  0  0  0
    2.2956   -1.1422    0.0000 C   0  0  0  0  0  0  0  0  0  0  0  0
    2.2956   -0.3172    0.0000 O   0  0  0  0  0  0  0  0  0  0  0  0
    3.0101   -1.5547    0.0000 C   0  0  0  0  0  0  0  0  0  0  0  0
    3.7245   -1.1422    0.0000 N   0  0  0  0  0  0  0  0  0  0  0  0
    4.4390   -1.5547    0.0000 C   0  0  0  0  0  0  0  0  0  0  0  0
    4.4390   -2.3797    0.0000 O   0  0  0  0  0  0  0  0  0  0  0  0
    5.1535   -1.1422    0.0000 N   0  0  0  0  0  0  0  0  0  0  0  0
    5.1535   -0.3172    0.0000 C   0  0  0  0  0  0  0  0  0  0  0  0
    5.8679    0.0953    0.0000 C   0  0  0  0  0  0  0  0  0  0  0  0
    6.5824   -0.3172    0.0000 N   0  0  0  0  0  0  0  0  0  0  0  0
    6.5824   -1.1422    0.0000 C   0  0  0  0  0  0  0  0  0  0  0  0
    7.2969   -1.5547    0.0000 O   0  0  0  0  0  0  0  0  0  0  0  0
    5.8679   -1.5547    0.0000 C   0  0  0  0  0  0  0  0  0  0  0  0
    5.8679   -2.3797    0.0000 O   0  0  0  0  0  0  0  0  0  0  0  0
    7.2969    0.0953    0.0000 C   0  0  0  0  0  0  0  0  0  0  0  0
    8.0114   -0.3172    0.0000 C   0  0  0  0  0  0  0  0  0  0  0  0
    3.0101   -2.3797    0.0000 C   0  0  0  0  0  0  0  0  0  0  0  0
    3.7245   -2.7922    0.0000 C   0  0  0  0  0  0  0  0  0  0  0  0
    3.7245   -3.6172    0.0000 C   0  0  0  0  0  0  0  0  0  0  0  0
    3.0101   -4.0297    0.0000 C   0  0  0  0  0  0  0  0  0  0  0  0
    2.2956   -3.6172    0.0000 C   0  0  0  0  0  0  0  0  0  0  0  0
    2.2956   -2.7922    0.0000 C   0  0  0  0  0  0  0  0  0  0  0  0
   -1.4170    0.1762    0.0000 C   0  0  0  0  0  0  0  0  0  0  0  0
   -2.2408    0.1331    0.0000 O   0  5  0  0  0  0  0  0  0  0  0  0
   -1.0424    0.9113    0.0000 O   0  0  0  0  0  0  0  0  0  0  0  0
   -1.8527   -1.8631    0.0000 C   0  0  0  0  0  0  0  0  0  0  0  0
   -2.0624   -1.0807    0.0000 C   0  0  0  0  0  0  0  0  0  0  0  0
   -3.0647    0.0899    0.0000 Na  0  3  0  0  0  0  0  0  0  0  0  0
  1  2  1  0  0  0  0
  2  3  1  0  0  0  0
  3  4  1  0  0  0  0
  4  5  1  0  0  0  0
  1  5  1  0  0  0  0
  5  6  1  0  0  0  0
  6  7  2  0  0  0  0
  6  8  1  0  0  0  0
  1  8  1  0  0  0  0
  8  9  1  0  0  0  0
  9 10  1  0  0  0  0
 10 11  2  0  0  0  0
 10 12  1  0  0  0  0
 12 13  1  0  0  0  0
 13 14  1  0  0  0  0
 14 15  2  0  0  0  0
 14 16  1  0  0  0  0
 16 17  1  0  0  0  0
 17 18  1  0  0  0  0
 18 19  1  0  0  0  0
 19 20  1  0  0  0  0
 20 21  2  0  0  0  0
 20 22  1  0  0  0  0
 16 22  1  0  0  0  0
 22 23  2  0  0  0  0
 19 24  1  0  0  0  0
 24 25  1  0  0  0  0
 12 26  1  0  0  0  0
 26 27  2  0  0  0  0
 27 28  1  0  0  0  0
 28 29  2  0  0  0  0
 29 30  1  0  0  0  0
 30 31  2  0  0  0  0
 26 31  1  0  0  0  0
  4 32  1  0  0  0  0
 32 33  1  0  0  0  0
 32 34  2  0  0  0  0
  3 35  1  0  0  0  0
  3 36  1  0  0  0  0
M  CHG  2  33  -1  37   1
M  END
>  <Name>
Piperacillin sodium salt

>  <CAS>
59703-84-3

>  <Formula>
C23H26N5NaO7S

>  <MolWt>
539.54 

>  <Bioactivity>
Piperacillin is a semisynthetic, broad-spectrum, ampicillin derived ureidopenicillin antibiotic proposed for pseudomonas infections.

>  <Pathways>
Microbiology & Virology

>  <Target>
Antibiotic

>  <Receptor>
?-Lactamase

>  <Reference>
1. Williamson R, et al. Antimicrob Agents Chemother, 1980, 18(4), 629-637.

$$$$
54527-84-3
  Mrv1561503291623562D          

 37 37  0  0  0  0            999 V2000
    1.2305    2.5208    0.0000 H   0  3  0  0  0  0  0  0  0  0  0  0
   -0.9129    1.2833    0.0000 C   0  0  0  0  0  0  0  0  0  0  0  0
   -0.1985    1.6958    0.0000 C   0  0  0  0  0  0  0  0  0  0  0  0
   -0.1985    2.5208    0.0000 N   0  3  0  0  0  0  0  0  0  0  0  0
    0.5160    2.9333    0.0000 O   0  5  0  0  0  0  0  0  0  0  0  0
   -0.9129    2.9333    0.0000 O   0  0  0  0  0  0  0  0  0  0  0  0
    0.5160    1.2833    0.0000 C   0  0  0  0  0  0  0  0  0  0  0  0
    0.5160    0.4583    0.0000 C   0  0  0  0  0  0  0  0  0  0  0  0
   -0.1985    0.0458    0.0000 C   0  0  0  0  0  0  0  0  0  0  0  0
   -0.9129    0.4583    0.0000 C   0  0  0  0  0  0  0  0  0  0  0  0
   -1.6274    0.0458    0.0000 C   0  0  0  0  0  0  0  0  0  0  0  0
   -1.6274   -0.7792    0.0000 C   0  0  0  0  0  0  0  0  0  0  0  0
   -2.3419   -1.1917    0.0000 C   0  0  0  0  0  0  0  0  0  0  0  0
   -3.0563   -0.7792    0.0000 N   0  0  0  0  0  0  0  0  0  0  0  0
   -3.0563    0.0458    0.0000 C   0  0  0  0  0  0  0  0  0  0  0  0
   -2.3419    0.4583    0.0000 C   0  0  0  0  0  0  0  0  0  0  0  0
   -2.3419    1.2833    0.0000 C   0  0  0  0  0  0  0  0  0  0  0  0
   -3.0563    1.6958    0.0000 O   0  0  0  0  0  0  0  0  0  0  0  0
   -3.0563    2.5208    0.0000 C   0  0  0  0  0  0  0  0  0  0  0  0
   -1.6274    1.6958    0.0000 O   0  0  0  0  0  0  0  0  0  0  0  0
   -3.7708    0.4583    0.0000 C   0  0  0  0  0  0  0  0  0  0  0  0
   -2.3419   -2.0167    0.0000 C   0  0  0  0  0  0  0  0  0  0  0  0
   -0.9129   -1.1917    0.0000 C   0  0  0  0  0  0  0  0  0  0  0  0
   -0.1985   -0.7792    0.0000 O   0  0  0  0  0  0  0  0  0  0  0  0
    0.5160   -1.1917    0.0000 C   0  0  0  0  0  0  0  0  0  0  0  0
    1.2305   -0.7792    0.0000 C   0  0  0  0  0  0  0  0  0  0  0  0
    1.9449   -1.1917    0.0000 N   0  0  0  0  0  0  0  0  0  0  0  0
    2.6594   -0.7792    0.0000 C   0  0  0  0  0  0  0  0  0  0  0  0
    3.3739   -1.1917    0.0000 C   0  0  0  0  0  0  0  0  0  0  0  0
    4.0884   -0.7792    0.0000 C   0  0  0  0  0  0  0  0  0  0  0  0
    4.8028   -1.1917    0.0000 C   0  0  0  0  0  0  0  0  0  0  0  0
    4.8028   -2.0167    0.0000 C   0  0  0  0  0  0  0  0  0  0  0  0
    4.0884   -2.4292    0.0000 C   0  0  0  0  0  0  0  0  0  0  0  0
    3.3739   -2.0167    0.0000 C   0  0  0  0  0  0  0  0  0  0  0  0
    1.9449   -2.0167    0.0000 C   0  0  0  0  0  0  0  0  0  0  0  0
   -0.9129   -2.0167    0.0000 O   0  0  0  0  0  0  0  0  0  0  0  0
    7.1600    0.0000    0.0000 Cl  0  5  0  0  0  0  0  0  0  0  0  0
  2  3  2  0  0  0  0
  3  4  1  0  0  0  0
  4  5  1  0  0  0  0
  4  6  2  0  0  0  0
  3  7  1  0  0  0  0
  7  8  2  0  0  0  0
  8  9  1  0  0  0  0
  9 10  2  0  0  0  0
  2 10  1  0  0  0  0
 10 11  1  0  0  0  0
 11 12  1  0  0  0  0
 12 13  2  0  0  0  0
 13 14  1  0  0  0  0
 14 15  1  0  0  0  0
 15 16  2  0  0  0  0
 11 16  1  0  0  0  0
 16 17  1  0  0  0  0
 17 18  1  0  0  0  0
 18 19  1  0  0  0  0
 17 20  2  0  0  0  0
 15 21  1  0  0  0  0
 13 22  1  0  0  0  0
 12 23  1  0  0  0  0
 23 24  1  0  0  0  0
 24 25  1  0  0  0  0
 25 26  1  0  0  0  0
 26 27  1  0  0  0  0
 27 28  1  0  0  0  0
 28 29  1  0  0  0  0
 29 30  2  0  0  0  0
 30 31  1  0  0  0  0
 31 32  2  0  0  0  0
 32 33  1  0  0  0  0
 33 34  2  0  0  0  0
 29 34  1  0  0  0  0
 27 35  1  0  0  0  0
 23 36  2  0  0  0  0
M  CHG  4   1   1   4   1   5  -1  37  -1
M  END
>  <Name>
Nicardipine HCl

>  <CAS>
54527-84-3

>  <Formula>
C26H30ClN3O6

>  <MolWt>
515.99 

>  <Bioactivity>
A potent calcium channel blockader with marked vasodilator action. It has antihypertensive properties and is effective in the treatment of angina and coronary spasms without showing cardiodepressant effects. It has also been used in the treatment of asthma and enhances the action of specific antineoplastic agents. 

>  <Pathways>
Membrane Transporter/Ion Channel; Neuroscience; GPCR/G Protein

>  <Target>
Calcium Channel;AChR antagonist;Adrenergic Receptor antagonist

>  <Receptor>
Calcium Channel ;Muscarinic AChR;Adrenergic receptor

>  <Reference>
1.Willis AL, et al. Arteriosclerosis, 1985, 5(3), 250-255.

$$$$
T1218
  Mrv1561503291623562D          

 45 48  0  0  1  0            999 V2000
    1.6905   -0.1510    0.0000 C   0  0  0  0  0  0  0  0  0  0  0  0
    2.4049    0.2615    0.0000 S   0  0  0  0  0  0  0  0  0  0  0  0
    3.1194   -0.1510    0.0000 C   0  0  0  0  0  0  0  0  0  0  0  0
    3.1194   -0.9760    0.0000 C   0  0  0  0  0  0  0  0  0  0  0  0
    2.4049   -1.3885    0.0000 C   0  0  0  0  0  0  0  0  0  0  0  0
    1.6905   -0.9760    0.0000 N   0  0  0  0  0  0  0  0  0  0  0  0
    0.8655   -0.9760    0.0000 C   0  0  0  0  0  0  0  0  0  0  0  0
    0.2821   -1.5593    0.0000 O   0  0  0  0  0  0  0  0  0  0  0  0
    0.8655   -0.1510    0.0000 C   0  0  0  0  0  0  0  0  0  0  0  0
    0.2821    0.4324    0.0000 N   0  0  0  0  0  0  0  0  0  0  0  0
   -0.5148    0.2189    0.0000 C   0  0  0  0  0  0  0  0  0  0  0  0
   -0.7283   -0.5780    0.0000 O   0  0  0  0  0  0  0  0  0  0  0  0
   -1.0982    0.8022    0.0000 C   0  0  0  0  0  0  0  0  0  0  0  0
   -1.8950    0.5887    0.0000 N   0  0  0  0  0  0  0  0  0  0  0  0
   -2.4784    1.1721    0.0000 C   0  0  0  0  0  0  0  0  0  0  0  0
   -2.2649    1.9689    0.0000 O   0  0  0  0  0  0  0  0  0  0  0  0
   -3.2753    0.9585    0.0000 N   0  0  0  0  0  0  0  0  0  0  0  0
   -3.4888    0.1616    0.0000 C   0  0  0  0  0  0  0  0  0  0  0  0
   -2.9055   -0.4217    0.0000 O   0  0  0  0  0  0  0  0  0  0  0  0
   -4.2857   -0.0519    0.0000 C   0  0  0  0  0  0  0  0  0  0  0  0
   -4.4992   -0.8488    0.0000 O   0  0  0  0  0  0  0  0  0  0  0  0
   -4.8691    0.5315    0.0000 N   0  0  0  0  0  0  0  0  0  0  0  0
   -4.6556    1.3284    0.0000 C   0  0  0  0  0  0  0  0  0  0  0  0
   -3.8587    1.5419    0.0000 C   0  0  0  0  0  0  0  0  0  0  0  0
   -5.6660    0.3179    0.0000 C   0  0  0  0  0  0  0  0  0  0  0  0
   -6.2493    0.9013    0.0000 C   0  0  0  0  0  0  0  0  0  0  0  0
   -0.8846    1.5991    0.0000 C   0  0  0  0  0  0  0  0  0  0  0  0
   -1.4680    2.1825    0.0000 C   0  0  0  0  0  0  0  0  0  0  0  0
   -1.2545    2.9794    0.0000 C   0  0  0  0  0  0  0  0  0  0  0  0
   -0.4576    3.1929    0.0000 C   0  0  0  0  0  0  0  0  0  0  0  0
   -0.2441    3.9898    0.0000 O   0  0  0  0  0  0  0  0  0  0  0  0
    0.1258    2.6095    0.0000 C   0  0  0  0  0  0  0  0  0  0  0  0
   -0.0877    1.8126    0.0000 C   0  0  0  0  0  0  0  0  0  0  0  0
    2.4049   -2.2135    0.0000 C   0  0  0  0  0  0  0  0  0  0  0  0
    1.6905   -2.6260    0.0000 O   0  5  0  0  0  0  0  0  0  0  0  0
    3.1194   -2.6260    0.0000 O   0  0  0  0  0  0  0  0  0  0  0  0
    3.8339   -1.3885    0.0000 C   0  0  0  0  0  0  0  0  0  0  0  0
    4.5483   -0.9760    0.0000 S   0  0  0  0  0  0  0  0  0  0  0  0
    5.2628   -1.3885    0.0000 C   0  0  0  0  0  0  0  0  0  0  0  0
    6.0165   -1.0529    0.0000 N   0  0  0  0  0  0  0  0  0  0  0  0
    6.5685   -1.6660    0.0000 N   0  0  0  0  0  0  0  0  0  0  0  0
    6.1560   -2.3805    0.0000 N   0  0  0  0  0  0  0  0  0  0  0  0
    5.3490   -2.2090    0.0000 N   0  0  0  0  0  0  0  0  0  0  0  0
    4.7360   -2.7610    0.0000 C   0  0  0  0  0  0  0  0  0  0  0  0
    0.9760   -3.0385    0.0000 Na  0  3  0  0  0  0  0  0  0  0  0  0
  1  2  1  0  0  0  0
  2  3  1  0  0  0  0
  3  4  1  0  0  0  0
  4  5  2  0  0  0  0
  5  6  1  0  0  0  0
  1  6  1  0  0  0  0
  6  7  1  0  0  0  0
  7  8  2  0  0  0  0
  7  9  1  0  0  0  0
  1  9  1  0  0  0  0
  9 10  1  0  0  0  0
 10 11  1  0  0  0  0
 11 12  2  0  0  0  0
 11 13  1  0  0  0  0
 13 14  1  0  0  0  0
 14 15  1  0  0  0  0
 15 16  2  0  0  0  0
 15 17  1  0  0  0  0
 17 18  1  0  0  0  0
 18 19  2  0  0  0  0
 18 20  1  0  0  0  0
 20 21  2  0  0  0  0
 20 22  1  0  0  0  0
 22 23  1  0  0  0  0
 23 24  1  0  0  0  0
 17 24  1  0  0  0  0
 22 25  1  0  0  0  0
 25 26  1  0  0  0  0
 13 27  1  0  0  0  0
 27 28  2  0  0  0  0
 28 29  1  0  0  0  0
 29 30  2  0  0  0  0
 30 31  1  0  0  0  0
 30 32  1  0  0  0  0
 32 33  2  0  0  0  0
 27 33  1  0  0  0  0
  5 34  1  0  0  0  0
 34 35  1  0  0  0  0
 34 36  2  0  0  0  0
  4 37  1  0  0  0  0
 37 38  1  0  0  0  0
 38 39  1  0  0  0  0
 39 40  2  0  0  0  0
 40 41  1  0  0  0  0
 41 42  2  0  0  0  0
 42 43  1  0  0  0  0
 39 43  1  0  0  0  0
 43 44  1  0  0  0  0
M  CHG  2  35  -1  45   1
M  END
>  <Name>
Cefoperazone sodium

>  <CAS>
62893-20-3

>  <Formula>
C25H26N9NaO8S2

>  <MolWt>
667.65 

>  <Bioactivity>
Semisynthetic broad-spectrum cephalosporin with a tetrazolyl moiety that is resistant to beta-lactamase. It has been proposed especially against Pseudomonas infections.

>  <Pathways>
Microbiology & Virology

>  <Target>
Antibacterial

>  <Receptor>
PBPs

>  <Reference>
1. Fass RJ, Helsel VL. Diagn Microbiol Infect Dis. 1986 Jan;4(1):77-81.

$$$$
138452-21-8
  Mrv1561503291623562D          

 39 40  0  0  0  0            999 V2000
    0.4125    0.0000    0.0000 H   0  3  0  0  0  0  0  0  0  0  0  0
   11.0712   -1.5908    0.0000 C   0  0  0  0  0  0  0  0  0  0  0  0
   11.7857   -1.1783    0.0000 C   0  0  0  0  0  0  0  0  0  0  0  0
   11.7857   -0.3533    0.0000 C   0  0  0  0  0  0  0  0  0  0  0  0
   11.7857    0.4717    0.0000 O   0  0  0  0  0  0  0  0  0  0  0  0
   10.9607   -0.3533    0.0000 C   0  0  0  0  0  0  0  0  0  0  0  0
   10.5482   -1.0678    0.0000 C   0  0  0  0  0  0  0  0  0  0  0  0
    9.7232   -1.0678    0.0000 C   0  0  0  0  0  0  0  0  0  0  0  0
    9.3107   -0.3533    0.0000 N   0  0  0  0  0  0  0  0  0  0  0  0
    9.7232    0.3611    0.0000 C   0  0  0  0  0  0  0  0  0  0  0  0
   10.5482    0.3611    0.0000 C   0  0  0  0  0  0  0  0  0  0  0  0
    8.4857   -0.3533    0.0000 C   0  0  0  0  0  0  0  0  0  0  0  0
    8.0732    0.3611    0.0000 C   0  0  0  0  0  0  0  0  0  0  0  0
    7.2482    0.3611    0.0000 C   0  0  0  0  0  0  0  0  0  0  0  0
    6.8357    1.0756    0.0000 C   0  0  0  0  0  0  0  0  0  0  0  0
    7.2482    1.7901    0.0000 O   0  0  0  0  0  0  0  0  0  0  0  0
    6.0107    1.0756    0.0000 C   0  0  0  0  0  0  0  0  0  0  0  0
    5.5982    0.3611    0.0000 C   0  0  0  0  0  0  0  0  0  0  0  0
    4.7732    0.3611    0.0000 C   0  0  0  0  0  0  0  0  0  0  0  0
    4.3607    1.0756    0.0000 C   0  0  0  0  0  0  0  0  0  0  0  0
    3.5357    1.0756    0.0000 C   0  0  0  0  0  0  0  0  0  0  0  0
    3.5357    0.2506    0.0000 C   0  0  0  0  0  0  0  0  0  0  0  0
    3.5357    1.9006    0.0000 C   0  0  0  0  0  0  0  0  0  0  0  0
    2.7107    1.0756    0.0000 C   0  0  0  0  0  0  0  0  0  0  0  0
    2.2982    1.7901    0.0000 O   0  0  0  0  0  0  0  0  0  0  0  0
    2.2982    0.3611    0.0000 O   0  0  0  0  0  0  0  0  0  0  0  0
    4.7732    1.7901    0.0000 C   0  0  0  0  0  0  0  0  0  0  0  0
    5.5982    1.7901    0.0000 C   0  0  0  0  0  0  0  0  0  0  0  0
   12.6107   -0.3533    0.0000 C   0  0  0  0  0  0  0  0  0  0  0  0
   13.0232    0.3611    0.0000 C   0  0  0  0  0  0  0  0  0  0  0  0
   13.8482    0.3611    0.0000 C   0  0  0  0  0  0  0  0  0  0  0  0
   14.2607   -0.3533    0.0000 C   0  0  0  0  0  0  0  0  0  0  0  0
   13.8482   -1.0678    0.0000 C   0  0  0  0  0  0  0  0  0  0  0  0
   13.0232   -1.0678    0.0000 C   0  0  0  0  0  0  0  0  0  0  0  0
   12.5002   -1.5908    0.0000 C   0  0  0  0  0  0  0  0  0  0  0  0
   12.5002   -2.4158    0.0000 C   0  0  0  0  0  0  0  0  0  0  0  0
   11.7857   -2.8283    0.0000 C   0  0  0  0  0  0  0  0  0  0  0  0
   11.0712   -2.4158    0.0000 C   0  0  0  0  0  0  0  0  0  0  0  0
   -0.4125    0.0000    0.0000 Cl  0  5  0  0  0  0  0  0  0  0  0  0
  2  3  2  0  0  0  0
  3  4  1  0  0  0  0
  4  5  1  0  0  0  0
  4  6  1  0  0  0  0
  6  7  1  0  0  0  0
  7  8  1  0  0  0  0
  8  9  1  0  0  0  0
  9 10  1  0  0  0  0
 10 11  1  0  0  0  0
  6 11  1  0  0  0  0
  9 12  1  0  0  0  0
 12 13  1  0  0  0  0
 13 14  1  0  0  0  0
 14 15  1  0  0  0  0
 15 16  1  0  0  0  0
 15 17  1  0  0  0  0
 17 18  2  0  0  0  0
 18 19  1  0  0  0  0
 19 20  2  0  0  0  0
 20 21  1  0  0  0  0
 21 22  1  0  0  0  0
 21 23  1  0  0  0  0
 21 24  1  0  0  0  0
 24 25  1  0  0  0  0
 24 26  2  0  0  0  0
 20 27  1  0  0  0  0
 27 28  2  0  0  0  0
 17 28  1  0  0  0  0
  4 29  1  0  0  0  0
 29 30  2  0  0  0  0
 30 31  1  0  0  0  0
 31 32  2  0  0  0  0
 32 33  1  0  0  0  0
 33 34  2  0  0  0  0
 29 34  1  0  0  0  0
  3 35  1  0  0  0  0
 35 36  2  0  0  0  0
 36 37  1  0  0  0  0
 37 38  2  0  0  0  0
  2 38  1  0  0  0  0
M  CHG  2   1   1  39  -1
M  END
>  <Name>
Fexofenadine HCl

>  <CAS>
138452-21-8

>  <Formula>
C32H4OCINO4

>  <MolWt>
538.12 

>  <Bioactivity>
Fexofenadine hydrochloride (Allegra) is an antihistamine drug used in the treatment of hayfever and similar allergy symptoms. It was developed as a successor of and alternative to terfenadine. Fexofenadine, like other second and third-generation antihistamines, does not readily pass through the blood-brain barrier, and so causes less drowsiness than first-generation histamine-receptor antagonists.

>  <Pathways>
Neuroscience

>  <Target>
Histamine Receptor antagonist

>  <Receptor>
Histamine H1 receptor

>  <Reference>
1. Abbas MN, et al. Anal Sci. 2004 Aug;20(8):1137-42.

$$$$
133099-07-7
  Mrv1561503291623562D          

 34 36  0  0  1  0            999 V2000
    0.8961   -0.1105    0.0000 C   0  0  0  0  0  0  0  0  0  0  0  0
    1.2316   -0.8642    0.0000 C   0  0  0  0  0  0  0  0  0  0  0  0
    1.5672   -1.6179    0.0000 C   0  0  0  0  0  0  0  0  0  0  0  0
    2.3877   -1.7041    0.0000 C   0  0  0  0  0  0  0  0  0  0  0  0
    2.7232   -2.4578    0.0000 C   0  0  0  0  0  0  0  0  0  0  0  0
    2.2383   -3.1252    0.0000 C   0  0  0  0  0  0  0  0  0  0  0  0
    1.4178   -3.0390    0.0000 C   0  0  0  0  0  0  0  0  0  0  0  0
    1.0823   -2.2853    0.0000 C   0  0  0  0  0  0  0  0  0  0  0  0
    1.9853   -0.5286    0.0000 C   0  0  0  0  0  0  0  0  0  0  0  0
    2.0715    0.2918    0.0000 C   0  0  0  0  0  0  0  0  0  0  0  0
    2.8252    0.6274    0.0000 C   0  0  0  0  0  0  0  0  0  0  0  0
    3.4926    0.1425    0.0000 C   0  0  0  0  0  0  0  0  0  0  0  0
    3.4064   -0.6780    0.0000 C   0  0  0  0  0  0  0  0  0  0  0  0
    2.6527   -1.0136    0.0000 C   0  0  0  0  0  0  0  0  0  0  0  0
    0.4779   -1.1998    0.0000 C   0  0  0  0  0  0  0  0  0  0  0  0
    0.3917   -2.0202    0.0000 O   0  0  0  0  0  0  0  0  0  0  0  0
   -0.1895   -0.7148    0.0000 N   0  0  0  0  0  0  0  0  0  0  0  0
    0.0891    0.0610    0.0000 C   0  0  0  0  0  0  0  0  0  0  0  0
    0.0029    0.8815    0.0000 N   0  0  0  0  0  0  0  0  0  0  0  0
    0.7565    1.2170    0.0000 C   0  0  0  0  0  0  0  0  0  0  0  0
    1.3086    0.6039    0.0000 C   0  0  0  0  0  0  0  0  0  0  0  0
   -0.7116    1.2940    0.0000 C   0  0  0  0  0  0  0  0  0  0  0  0
   -1.4261    0.8815    0.0000 C   0  0  0  0  0  0  0  0  0  0  0  0
   -2.1406    1.2940    0.0000 C   0  0  0  0  0  0  0  0  0  0  0  0
   -2.8550    0.8815    0.0000 C   0  0  0  0  0  0  0  0  0  0  0  0
   -3.5695    1.2940    0.0000 C   0  0  0  0  0  0  0  0  0  0  0  0
   -3.5695    2.1190    0.0000 C   0  0  0  0  0  0  0  0  0  0  0  0
   -4.3541    2.3739    0.0000 O   0  0  0  0  0  0  0  0  0  0  0  0
   -4.8390    1.7065    0.0000 C   0  0  0  0  0  0  0  0  0  0  0  0
   -4.3541    1.0390    0.0000 C   0  0  0  0  0  0  0  0  0  0  0  0
   -2.8550    2.5315    0.0000 C   0  0  0  0  0  0  0  0  0  0  0  0
   -2.1406    2.1190    0.0000 C   0  0  0  0  0  0  0  0  0  0  0  0
    6.6748    0.0000    0.0000 H   0  3  0  0  0  0  0  0  0  0  0  0
    5.8498    0.0000    0.0000 Br  0  5  0  0  0  0  0  0  0  0  0  0
  1  2  1  0  0  0  0
  2  3  1  0  0  0  0
  3  4  2  0  0  0  0
  4  5  1  0  0  0  0
  5  6  2  0  0  0  0
  6  7  1  0  0  0  0
  7  8  2  0  0  0  0
  3  8  1  0  0  0  0
  2  9  1  0  0  0  0
  9 10  2  0  0  0  0
 10 11  1  0  0  0  0
 11 12  2  0  0  0  0
 12 13  1  0  0  0  0
 13 14  2  0  0  0  0
  9 14  1  0  0  0  0
  2 15  1  0  0  0  0
 15 16  2  0  0  0  0
 15 17  1  0  0  0  0
  1 18  1  0  0  0  0
 18 19  1  0  0  0  0
 19 20  1  0  0  0  0
 20 21  1  0  0  0  0
  1 21  1  0  0  0  0
 19 22  1  0  0  0  0
 22 23  1  0  0  0  0
 23 24  1  0  0  0  0
 24 25  2  0  0  0  0
 25 26  1  0  0  0  0
 26 27  2  0  0  0  0
 27 28  1  0  0  0  0
 28 29  1  0  0  0  0
 29 30  1  0  0  0  0
 26 30  1  0  0  0  0
 27 31  1  0  0  0  0
 31 32  2  0  0  0  0
 24 32  1  0  0  0  0
M  CHG  2  33   1  34  -1
M  END
>  <Name>
Darifenacin HBr

>  <CAS>
133099-07-7

>  <Formula>
C28H31BrN2O2

>  <MolWt>
505.45 

>  <Bioactivity>
Darifenacin is a selective muscarinic receptor antagonist.

>  <Pathways>
Neuroscience

>  <Target>
AChR antagonist

>  <Receptor>
Muscarinic AChR

>  <Reference>
1. Moriya H, et al. Life Sci. 1999; 64(25):2351-8. 

$$$$
T1570
  Mrv1561503291623562D          

 39 44  0  0  0  0            999 V2000
   -0.9308   -2.5508    0.0000 C   0  0  0  0  0  0  0  0  0  0  0  0
   -0.2163   -2.9633    0.0000 C   0  0  0  0  0  0  0  0  0  0  0  0
    0.4982   -2.5508    0.0000 C   0  0  0  0  0  0  0  0  0  0  0  0
    1.2519   -2.8863    0.0000 N   0  0  0  0  0  0  0  0  0  0  0  0
    1.8039   -2.2732    0.0000 C   0  0  0  0  0  0  0  0  0  0  0  0
    1.3914   -1.5588    0.0000 C   0  0  0  0  0  0  0  0  0  0  0  0
    0.5844   -1.7303    0.0000 N   0  0  0  0  0  0  0  0  0  0  0  0
   -0.0287   -1.1783    0.0000 C   0  0  0  0  0  0  0  0  0  0  0  0
    1.8039   -0.8443    0.0000 C   0  0  0  0  0  0  0  0  0  0  0  0
    2.6289   -0.8443    0.0000 C   0  0  0  0  0  0  0  0  0  0  0  0
    3.0414   -1.5588    0.0000 C   0  0  0  0  0  0  0  0  0  0  0  0
    2.6289   -2.2732    0.0000 C   0  0  0  0  0  0  0  0  0  0  0  0
   -0.2163   -3.7883    0.0000 C   0  0  0  0  0  0  0  0  0  0  0  0
   -0.9308   -4.2008    0.0000 C   0  0  0  0  0  0  0  0  0  0  0  0
   -1.6452   -3.7883    0.0000 C   0  0  0  0  0  0  0  0  0  0  0  0
   -1.6452   -2.9633    0.0000 C   0  0  0  0  0  0  0  0  0  0  0  0
   -2.4298   -2.7083    0.0000 N   0  0  0  0  0  0  0  0  0  0  0  0
   -2.9148   -3.3758    0.0000 C   0  0  0  0  0  0  0  0  0  0  0  0
   -2.4298   -4.0432    0.0000 N   0  0  0  0  0  0  0  0  0  0  0  0
   -3.7398   -3.3758    0.0000 C   0  0  0  0  0  0  0  0  0  0  0  0
   -4.1523   -4.0902    0.0000 C   0  0  0  0  0  0  0  0  0  0  0  0
   -4.9773   -4.0902    0.0000 C   0  0  0  0  0  0  0  0  0  0  0  0
   -2.6848   -1.9237    0.0000 C   0  0  0  0  0  0  0  0  0  0  0  0
   -2.1327   -1.3106    0.0000 C   0  0  0  0  0  0  0  0  0  0  0  0
   -2.3877   -0.5260    0.0000 C   0  0  0  0  0  0  0  0  0  0  0  0
   -1.8357    0.0871    0.0000 C   0  0  0  0  0  0  0  0  0  0  0  0
   -1.0287   -0.0844    0.0000 C   0  0  0  0  0  0  0  0  0  0  0  0
   -0.4767    0.5287    0.0000 C   0  0  0  0  0  0  0  0  0  0  0  0
   -0.7316    1.3133    0.0000 C   0  0  0  0  0  0  0  0  0  0  0  0
   -0.1796    1.9264    0.0000 C   0  0  0  0  0  0  0  0  0  0  0  0
    0.6274    1.7549    0.0000 C   0  0  0  0  0  0  0  0  0  0  0  0
    0.8824    0.9702    0.0000 C   0  0  0  0  0  0  0  0  0  0  0  0
    0.3303    0.3571    0.0000 C   0  0  0  0  0  0  0  0  0  0  0  0
   -1.5386    1.4848    0.0000 C   0  0  0  0  0  0  0  0  0  0  0  0
   -1.7935    2.2694    0.0000 O   0  0  0  0  0  0  0  0  0  0  0  0
   -2.0906    0.8717    0.0000 O   0  0  0  0  0  0  0  0  0  0  0  0
   -0.7737   -0.8690    0.0000 C   0  0  0  0  0  0  0  0  0  0  0  0
   -1.3258   -1.4821    0.0000 C   0  0  0  0  0  0  0  0  0  0  0  0
   -0.9308   -5.0258    0.0000 C   0  0  0  0  0  0  0  0  0  0  0  0
  1  2  2  0  0  0  0
  2  3  1  0  0  0  0
  3  4  2  0  0  0  0
  4  5  1  0  0  0  0
  5  6  2  0  0  0  0
  6  7  1  0  0  0  0
  3  7  1  0  0  0  0
  7  8  1  0  0  0  0
  6  9  1  0  0  0  0
  9 10  2  0  0  0  0
 10 11  1  0  0  0  0
 11 12  2  0  0  0  0
  5 12  1  0  0  0  0
  2 13  1  0  0  0  0
 13 14  2  0  0  0  0
 14 15  1  0  0  0  0
 15 16  2  0  0  0  0
  1 16  1  0  0  0  0
 16 17  1  0  0  0  0
 17 18  1  0  0  0  0
 18 19  2  0  0  0  0
 15 19  1  0  0  0  0
 18 20  1  0  0  0  0
 20 21  1  0  0  0  0
 21 22  1  0  0  0  0
 17 23  1  0  0  0  0
 23 24  1  0  0  0  0
 24 25  2  0  0  0  0
 25 26  1  0  0  0  0
 26 27  2  0  0  0  0
 27 28  1  0  0  0  0
 28 29  2  0  0  0  0
 29 30  1  0  0  0  0
 30 31  2  0  0  0  0
 31 32  1  0  0  0  0
 32 33  2  0  0  0  0
 28 33  1  0  0  0  0
 29 34  1  0  0  0  0
 34 35  1  0  0  0  0
 34 36  2  0  0  0  0
 27 37  1  0  0  0  0
 37 38  2  0  0  0  0
 24 38  1  0  0  0  0
 14 39  1  0  0  0  0
M  END
>  <Name>
Telmisartan

>  <CAS>
144701-48-4

>  <Formula>
C33H30N4O2

>  <MolWt>
514.62 

>  <Bioactivity>
Telmisartan is an angiotensin II receptor antagonist (ARB) used in the management of hypertension. Generally, angiotensin II receptor blockers (ARBs) such as telmisartan bind to the angiotensin II type 1 (AT1) receptors with high affinity, causing inhibition of the action of angiotensin II on vascular smooth muscle, ultimately leading to a reduction in arterial blood pressure. Recent studies suggest that telmisartan may also have PPAR-gamma agonistic properties that could potentially confer beneficial metabolic effects. 

>  <Pathways>
Angiogenesis; Endocrinology/ Hormones

>  <Target>
RAAS inhibitor; ACE inhibitor; PPAR agonist

>  <Receptor>
ACE;PPAR gamma

>  <Reference>
1. Benson SC, et al. Hypertension, 2004, 43(5), 993-1002.

$$$$
T1616
  Mrv1561503291623562D          

 38 37  0  0  1  0            999 V2000
   -0.4111    0.0753    0.0000 C   0  0  0  0  0  0  0  0  0  0  0  0
    0.3034    0.4878    0.0000 S   0  0  0  0  0  0  0  0  0  0  0  0
    1.0179    0.0753    0.0000 C   0  0  0  0  0  0  0  0  0  0  0  0
    1.0179   -0.7497    0.0000 C   0  0  0  0  0  0  0  0  0  0  0  0
    0.3034   -1.1622    0.0000 C   0  0  0  0  0  0  0  0  0  0  0  0
   -0.4111   -0.7497    0.0000 N   0  0  0  0  0  0  0  0  0  0  0  0
   -1.2361   -0.7497    0.0000 C   0  0  0  0  0  0  0  0  0  0  0  0
   -1.8194   -1.3330    0.0000 O   0  0  0  0  0  0  0  0  0  0  0  0
   -1.2361    0.0753    0.0000 C   0  0  0  0  0  0  0  0  0  0  0  0
   -1.8194    0.6587    0.0000 N   0  0  0  0  0  0  0  0  0  0  0  0
   -2.6163    0.4452    0.0000 C   0  0  0  0  0  0  0  0  0  0  0  0
   -2.8299   -0.3517    0.0000 O   0  0  0  0  0  0  0  0  0  0  0  0
   -3.1997    1.0285    0.0000 C   0  0  0  0  0  0  0  0  0  0  0  0
   -3.9966    0.8150    0.0000 C   0  0  0  0  0  0  0  0  0  0  0  0
   -4.2922    0.0448    0.0000 C   0  0  0  0  0  0  0  0  0  0  0  0
   -5.1161    0.0880    0.0000 S   0  0  0  0  0  0  0  0  0  0  0  0
   -5.3296    0.8849    0.0000 C   0  0  0  0  0  0  0  0  0  0  0  0
   -4.6377    1.3342    0.0000 N   0  0  0  0  0  0  0  0  0  0  0  0
   -6.0998    1.1805    0.0000 N   0  0  0  0  0  0  0  0  0  0  0  0
    0.3034   -1.9872    0.0000 C   0  0  0  0  0  0  0  0  0  0  0  0
   -0.4111   -2.3997    0.0000 O   0  0  0  0  0  0  0  0  0  0  0  0
    1.0179   -2.3997    0.0000 O   0  0  0  0  0  0  0  0  0  0  0  0
    1.7323   -1.1622    0.0000 C   0  0  0  0  0  0  0  0  0  0  0  0
    2.4468   -0.7497    0.0000 S   0  0  0  0  0  0  0  0  0  0  0  0
    2.4468    0.0753    0.0000 C   0  0  0  0  0  0  0  0  0  0  0  0
    1.7794    0.5603    0.0000 N   0  0  0  0  0  0  0  0  0  0  0  0
    2.0343    1.3449    0.0000 N   0  0  0  0  0  0  0  0  0  0  0  0
    2.8593    1.3449    0.0000 N   0  0  0  0  0  0  0  0  0  0  0  0
    3.1142    0.5603    0.0000 N   0  0  0  0  0  0  0  0  0  0  0  0
    3.8989    0.3053    0.0000 C   0  0  0  0  0  0  0  0  0  0  0  0
    4.5120    0.8574    0.0000 C   0  0  0  0  0  0  0  0  0  0  0  0
    5.2966    0.6024    0.0000 N   0  0  0  0  0  0  0  0  0  0  0  0
    5.9097    1.1544    0.0000 C   0  0  0  0  0  0  0  0  0  0  0  0
    5.4681   -0.2046    0.0000 C   0  0  0  0  0  0  0  0  0  0  0  0
    9.0918    0.0000    0.0000 H   0  3  0  0  0  0  0  0  0  0  0  0
    0.4125   -4.0497    0.0000 H   0  3  0  0  0  0  0  0  0  0  0  0
    8.2668    0.0000    0.0000 Cl  0  5  0  0  0  0  0  0  0  0  0  0
   -0.4125   -4.0497    0.0000 Cl  0  5  0  0  0  0  0  0  0  0  0  0
  1  2  1  0  0  0  0
  2  3  1  0  0  0  0
  3  4  1  0  0  0  0
  4  5  2  0  0  0  0
  5  6  1  0  0  0  0
  1  6  1  0  0  0  0
  6  7  1  0  0  0  0
  7  8  2  0  0  0  0
  7  9  1  0  0  0  0
  1  9  1  0  0  0  0
  9 10  1  0  0  0  0
 10 11  1  0  0  0  0
 11 12  2  0  0  0  0
 11 13  1  0  0  0  0
 13 14  1  0  0  0  0
 14 15  2  0  0  0  0
 15 16  1  0  0  0  0
 16 17  1  0  0  0  0
 17 18  2  0  0  0  0
 14 18  1  0  0  0  0
 17 19  1  0  0  0  0
  5 20  1  0  0  0  0
 20 21  1  0  0  0  0
 20 22  2  0  0  0  0
  4 23  1  0  0  0  0
 23 24  1  0  0  0  0
 24 25  1  0  0  0  0
 25 26  2  0  0  0  0
 26 27  1  0  0  0  0
 27 28  2  0  0  0  0
 28 29  1  0  0  0  0
 25 29  1  0  0  0  0
 29 30  1  0  0  0  0
 30 31  1  0  0  0  0
 31 32  1  0  0  0  0
 32 33  1  0  0  0  0
 32 34  1  0  0  0  0
M  CHG  4  35   1  36   1  37  -1  38  -1
M  END
>  <Name>
Cefotiam HCl

>  <CAS>
66309-69-1

>  <Formula>
C18H23N9O4S3.HCl

>  <MolWt>
562.08 

>  <Bioactivity>
One of the CEPHALOSPORINS that has a broad spectrum of activity against both gram-positive and gram-negative microorganisms. .

>  <Pathways>
Microbiology & Virology

>  <Target>
Antibiotic

>  <Receptor>
PBPs

>  <Reference>
1. Matsuda K, et al. Antimicrob Agents Chemother. 1995 Dec;39(12):2631-4.

$$$$
50-27-1
  Mrv1561503291623562D          

 21 24  0  0  1  0            999 V2000
    0.7475   -2.9779    0.0000 C   0  0  1  0  0  0  0  0  0  0  0  0
    1.5596   -2.8327    0.0000 C   0  0  1  0  0  0  0  0  0  0  0  0
    2.0914   -3.4634    0.0000 C   0  0  1  0  0  0  0  0  0  0  0  0
    2.9035   -3.3182    0.0000 C   0  0  0  0  0  0  0  0  0  0  0  0
    3.1838   -2.5422    0.0000 C   0  0  0  0  0  0  0  0  0  0  0  0
    3.9960   -2.3970    0.0000 C   0  0  0  0  0  0  0  0  0  0  0  0
    4.5278   -3.0277    0.0000 C   0  0  0  0  0  0  0  0  0  0  0  0
    5.3399   -2.8825    0.0000 O   0  0  0  0  0  0  0  0  0  0  0  0
    4.2475   -3.8037    0.0000 C   0  0  0  0  0  0  0  0  0  0  0  0
    3.4354   -3.9489    0.0000 C   0  0  0  0  0  0  0  0  0  0  0  0
    2.6520   -1.9115    0.0000 C   0  0  0  0  0  0  0  0  0  0  0  0
    1.8399   -2.0567    0.0000 C   0  0  0  0  0  0  0  0  0  0  0  0
    1.8111   -4.2393    0.0000 C   0  0  0  0  0  0  0  0  0  0  0  0
    0.9990   -4.3845    0.0000 C   0  0  0  0  0  0  0  0  0  0  0  0
    0.4672   -3.7538    0.0000 C   0  0  2  0  0  0  0  0  0  0  0  0
   -0.3574   -3.7270    0.0000 C   0  0  1  0  0  0  0  0  0  0  0  0
   -0.8637   -4.3783    0.0000 O   0  0  0  0  0  0  0  0  0  0  0  0
   -0.5867   -2.9345    0.0000 C   0  0  1  0  0  0  0  0  0  0  0  0
    0.0962   -2.4715    0.0000 C   0  0  0  0  0  0  0  0  0  0  0  0
   -1.3626   -2.6542    0.0000 O   0  0  0  0  0  0  0  0  0  0  0  0
    0.1073   -4.4962    0.0000 C   0  0  0  0  0  0  0  0  0  0  0  0
  1  2  1  0  0  0  0
  2  3  1  0  0  0  0
  3  4  1  0  0  0  0
  4  5  2  0  0  0  0
  5  6  1  0  0  0  0
  6  7  2  0  0  0  0
  7  8  1  0  0  0  0
  7  9  1  0  0  0  0
  9 10  2  0  0  0  0
  4 10  1  0  0  0  0
  5 11  1  0  0  0  0
 11 12  1  0  0  0  0
  2 12  1  6  0  0  0
  3 13  1  1  0  0  0
 13 14  1  0  0  0  0
 14 15  1  0  0  0  0
  1 15  1  0  0  0  0
 15 16  1  0  0  0  0
 16 17  1  1  0  0  0
 16 18  1  0  0  0  0
 18 19  1  0  0  0  0
  1 19  1  1  0  0  0
 18 20  1  6  0  0  0
 15 21  1  1  0  0  0
M  END
>  <Name>
Estriol

>  <CAS>
50-27-1

>  <Formula>
C18H24O3

>  <MolWt>
288.39 

>  <Bioactivity>
Estriol is an antagonist of the G-protein coupled estrogen receptor in estrogen receptor-negative breast cancer cells.

>  <Pathways>
Endocrinology/ Hormones

>  <Target>
Estrogen/Progestogen Receptor agonist

>  <Receptor>
Estrogen/progestogen Receptor ;MRP1

>  <Reference>
1. Lappano R, et al. Mol Cell Endocrinol. 2010, 320(1-2), 162-170.

$$$$
T2382
  Mrv1561503291623562D          

 33 36  0  0  0  0            999 V2000
   -4.8072   -1.1684    0.0000 C   0  0  0  0  0  0  0  0  0  0  0  0
   -4.0002   -0.9968    0.0000 C   0  0  0  0  0  0  0  0  0  0  0  0
   -3.4482   -1.6099    0.0000 C   0  0  0  0  0  0  0  0  0  0  0  0
   -2.6412   -1.4384    0.0000 S   0  0  0  0  0  0  0  0  0  0  0  0
   -2.4697   -2.2454    0.0000 O   0  0  0  0  0  0  0  0  0  0  0  0
   -2.8127   -0.6314    0.0000 O   0  0  0  0  0  0  0  0  0  0  0  0
   -1.8342   -1.2669    0.0000 N   0  0  0  0  0  0  0  0  0  0  0  0
   -1.2822   -1.8800    0.0000 C   0  0  0  0  0  0  0  0  0  0  0  0
   -0.4752   -1.7084    0.0000 C   0  0  0  0  0  0  0  0  0  0  0  0
    0.0768   -2.3215    0.0000 C   0  0  0  0  0  0  0  0  0  0  0  0
   -0.1781   -3.1062    0.0000 C   0  0  0  0  0  0  0  0  0  0  0  0
   -0.9851   -3.2777    0.0000 C   0  0  0  0  0  0  0  0  0  0  0  0
   -1.5371   -2.6646    0.0000 C   0  0  0  0  0  0  0  0  0  0  0  0
    0.3739   -3.7192    0.0000 F   0  0  0  0  0  0  0  0  0  0  0  0
    0.8838   -2.1500    0.0000 C   0  0  0  0  0  0  0  0  0  0  0  0
    1.4358   -2.7631    0.0000 O   0  0  0  0  0  0  0  0  0  0  0  0
    1.1387   -1.3654    0.0000 C   0  0  0  0  0  0  0  0  0  0  0  0
    0.6538   -0.6979    0.0000 C   0  0  0  0  0  0  0  0  0  0  0  0
    1.1387   -0.0305    0.0000 N   0  0  0  0  0  0  0  0  0  0  0  0
    1.9233   -0.2854    0.0000 C   0  0  0  0  0  0  0  0  0  0  0  0
    2.6378    0.1271    0.0000 N   0  0  0  0  0  0  0  0  0  0  0  0
    3.3523   -0.2854    0.0000 C   0  0  0  0  0  0  0  0  0  0  0  0
    3.3523   -1.1104    0.0000 C   0  0  0  0  0  0  0  0  0  0  0  0
    2.6378   -1.5229    0.0000 C   0  0  0  0  0  0  0  0  0  0  0  0
    1.9233   -1.1104    0.0000 C   0  0  0  0  0  0  0  0  0  0  0  0
    4.0668   -1.5229    0.0000 C   0  0  0  0  0  0  0  0  0  0  0  0
    4.7812   -1.1104    0.0000 C   0  0  0  0  0  0  0  0  0  0  0  0
    5.4957   -1.5229    0.0000 C   0  0  0  0  0  0  0  0  0  0  0  0
    5.4957   -2.3479    0.0000 C   0  0  0  0  0  0  0  0  0  0  0  0
    4.7812   -2.7604    0.0000 C   0  0  0  0  0  0  0  0  0  0  0  0
    4.0668   -2.3479    0.0000 C   0  0  0  0  0  0  0  0  0  0  0  0
    6.2102   -2.7604    0.0000 Cl  0  0  0  0  0  0  0  0  0  0  0  0
   -0.2203   -0.9238    0.0000 F   0  0  0  0  0  0  0  0  0  0  0  0
  1  2  1  0  0  0  0
  2  3  1  0  0  0  0
  3  4  1  0  0  0  0
  4  5  2  0  0  0  0
  4  6  2  0  0  0  0
  4  7  1  0  0  0  0
  7  8  1  0  0  0  0
  8  9  2  0  0  0  0
  9 10  1  0  0  0  0
 10 11  2  0  0  0  0
 11 12  1  0  0  0  0
 12 13  2  0  0  0  0
  8 13  1  0  0  0  0
 11 14  1  0  0  0  0
 10 15  1  0  0  0  0
 15 16  2  0  0  0  0
 15 17  1  0  0  0  0
 17 18  2  0  0  0  0
 18 19  1  0  0  0  0
 19 20  1  0  0  0  0
 20 21  2  0  0  0  0
 21 22  1  0  0  0  0
 22 23  2  0  0  0  0
 23 24  1  0  0  0  0
 24 25  2  0  0  0  0
 17 25  1  0  0  0  0
 20 25  1  0  0  0  0
 23 26  1  0  0  0  0
 26 27  2  0  0  0  0
 27 28  1  0  0  0  0
 28 29  2  0  0  0  0
 29 30  1  0  0  0  0
 30 31  2  0  0  0  0
 26 31  1  0  0  0  0
 29 32  1  0  0  0  0
  9 33  1  0  0  0  0
M  END
>  <Name>
Vemurafenib (PLX4032, RG7204)

>  <CAS>
918504-65-1

>  <Formula>
C23H18ClF2N3O3S

>  <MolWt>
489.92 

>  <Bioactivity>
Vemurafenib (PLX4032, RG7204) is a novel and potent inhibitor of B-RafV600E with IC50 of 31 nM in cell-free assay

>  <Pathways>
MAPK Signaling

>  <Target>
Raf inhibitor

>  <Receptor>
B-Raf;C-Raf;ACK1;SRMS

>  <Reference>
1. Bollag G, et al. Nature, 2010, 467(7315), 596-599.

$$$$
145040-37-5
  Mrv1561503291623562D          

 45 50  0  0  0  0            999 V2000
    0.7145   -0.4125    0.0000 C   0  0  0  0  0  0  0  0  0  0  0  0
    0.0000    0.0000    0.0000 C   0  0  0  0  0  0  0  0  0  0  0  0
   -0.7846   -0.2549    0.0000 N   0  0  0  0  0  0  0  0  0  0  0  0
   -1.2695    0.4125    0.0000 C   0  0  0  0  0  0  0  0  0  0  0  0
   -2.0945    0.4125    0.0000 O   0  0  0  0  0  0  0  0  0  0  0  0
   -2.5070   -0.3020    0.0000 C   0  0  0  0  0  0  0  0  0  0  0  0
   -3.3320   -0.3020    0.0000 C   0  0  0  0  0  0  0  0  0  0  0  0
   -0.7846    1.0799    0.0000 N   0  0  0  0  0  0  0  0  0  0  0  0
   -0.0000    0.8250    0.0000 C   0  0  0  0  0  0  0  0  0  0  0  0
    0.7145    1.2375    0.0000 C   0  0  0  0  0  0  0  0  0  0  0  0
    0.7145    2.0625    0.0000 C   0  0  0  0  0  0  0  0  0  0  0  0
    1.4289    2.4750    0.0000 O   0  0  0  0  0  0  0  0  0  0  0  0
    1.4289    3.3000    0.0000 C   0  0  0  0  0  0  0  0  0  0  0  0
    2.1434    3.7125    0.0000 O   0  0  0  0  0  0  0  0  0  0  0  0
    2.1434    4.5375    0.0000 C   0  0  0  0  0  0  0  0  0  0  0  0
    2.8579    4.9500    0.0000 O   0  0  0  0  0  0  0  0  0  0  0  0
    2.8579    5.7750    0.0000 C   0  0  0  0  0  0  0  0  0  0  0  0
    2.1434    6.1875    0.0000 C   0  0  0  0  0  0  0  0  0  0  0  0
    2.1434    7.0125    0.0000 C   0  0  0  0  0  0  0  0  0  0  0  0
    2.8579    7.4250    0.0000 C   0  0  0  0  0  0  0  0  0  0  0  0
    3.5724    7.0125    0.0000 C   0  0  0  0  0  0  0  0  0  0  0  0
    3.5724    6.1875    0.0000 C   0  0  0  0  0  0  0  0  0  0  0  0
    1.4289    4.9500    0.0000 O   0  0  0  0  0  0  0  0  0  0  0  0
    0.7145    3.7125    0.0000 C   0  0  0  0  0  0  0  0  0  0  0  0
    0.0000    2.4750    0.0000 O   0  0  0  0  0  0  0  0  0  0  0  0
    1.4289    0.8250    0.0000 C   0  0  0  0  0  0  0  0  0  0  0  0
    1.4289   -0.0000    0.0000 C   0  0  0  0  0  0  0  0  0  0  0  0
   -1.0396    1.8646    0.0000 C   0  0  0  0  0  0  0  0  0  0  0  0
   -1.8465    2.0361    0.0000 C   0  0  0  0  0  0  0  0  0  0  0  0
   -2.3986    1.4230    0.0000 C   0  0  0  0  0  0  0  0  0  0  0  0
   -3.2055    1.5945    0.0000 C   0  0  0  0  0  0  0  0  0  0  0  0
   -3.4605    2.3791    0.0000 C   0  0  0  0  0  0  0  0  0  0  0  0
   -2.9084    2.9922    0.0000 C   0  0  0  0  0  0  0  0  0  0  0  0
   -2.1015    2.8207    0.0000 C   0  0  0  0  0  0  0  0  0  0  0  0
   -4.2674    2.5507    0.0000 C   0  0  0  0  0  0  0  0  0  0  0  0
   -4.8195    1.9376    0.0000 C   0  0  0  0  0  0  0  0  0  0  0  0
   -5.6265    2.1091    0.0000 C   0  0  0  0  0  0  0  0  0  0  0  0
   -5.8814    2.8937    0.0000 C   0  0  0  0  0  0  0  0  0  0  0  0
   -5.3294    3.5068    0.0000 C   0  0  0  0  0  0  0  0  0  0  0  0
   -4.5224    3.3353    0.0000 C   0  0  0  0  0  0  0  0  0  0  0  0
   -3.9704    3.9484    0.0000 C   0  0  0  0  0  0  0  0  0  0  0  0
   -4.1419    4.7554    0.0000 N   0  0  0  0  0  0  0  0  0  0  0  0
   -3.4274    5.1679    0.0000 N   0  0  0  0  0  0  0  0  0  0  0  0
   -2.8143    4.6158    0.0000 N   0  0  0  0  0  0  0  0  0  0  0  0
   -3.1499    3.8621    0.0000 N   0  0  0  0  0  0  0  0  0  0  0  0
  1  2  2  0  0  0  0
  2  3  1  0  0  0  0
  3  4  2  0  0  0  0
  4  5  1  0  0  0  0
  5  6  1  0  0  0  0
  6  7  1  0  0  0  0
  4  8  1  0  0  0  0
  8  9  1  0  0  0  0
  2  9  1  0  0  0  0
  9 10  2  0  0  0  0
 10 11  1  0  0  0  0
 11 12  1  0  0  0  0
 12 13  1  0  0  0  0
 13 14  1  0  0  0  0
 14 15  1  0  0  0  0
 15 16  1  0  0  0  0
 16 17  1  0  0  0  0
 17 18  1  0  0  0  0
 18 19  1  0  0  0  0
 19 20  1  0  0  0  0
 20 21  1  0  0  0  0
 21 22  1  0  0  0  0
 17 22  1  0  0  0  0
 15 23  2  0  0  0  0
 13 24  1  0  0  0  0
 11 25  2  0  0  0  0
 10 26  1  0  0  0  0
 26 27  2  0  0  0  0
  1 27  1  0  0  0  0
  8 28  1  0  0  0  0
 28 29  1  0  0  0  0
 29 30  2  0  0  0  0
 30 31  1  0  0  0  0
 31 32  2  0  0  0  0
 32 33  1  0  0  0  0
 33 34  2  0  0  0  0
 29 34  1  0  0  0  0
 32 35  1  0  0  0  0
 35 36  2  0  0  0  0
 36 37  1  0  0  0  0
 37 38  2  0  0  0  0
 38 39  1  0  0  0  0
 39 40  2  0  0  0  0
 35 40  1  0  0  0  0
 40 41  1  0  0  0  0
 41 42  2  0  0  0  0
 42 43  1  0  0  0  0
 43 44  1  0  0  0  0
 44 45  2  0  0  0  0
 41 45  1  0  0  0  0
M  END
>  <Name>
Candesartan Cilexetil

>  <CAS>
145040-37-5

>  <Formula>
C33H34N6O6

>  <MolWt>
610.66 

>  <Bioactivity>
Candesartan Cilexetil is an angiotensin II receptor antagonist with IC50 of 0.26 nM, used in the treatment of hypertension.

>  <Pathways>
Angiogenesis;Endocrinology/ Hormones

>  <Target>
RAAS antagonist;ACE inhibitor

>  <Receptor>
Ang II receptor

>  <Reference>
1. See S, et al. Am J Health Syst Pharm,?000,?7(8), 739-746.

$$$$
42924-53-8
  Mrv1561503291623562D          

 17 18  0  0  0  0            999 V2000
    0.0000   -1.6500    0.0000 C   0  0  0  0  0  0  0  0  0  0  0  0
    0.7145   -1.2375    0.0000 C   0  0  0  0  0  0  0  0  0  0  0  0
    0.7145   -0.4125    0.0000 C   0  0  0  0  0  0  0  0  0  0  0  0
   -0.0000    0.0000    0.0000 C   0  0  0  0  0  0  0  0  0  0  0  0
   -0.7145   -0.4125    0.0000 C   0  0  0  0  0  0  0  0  0  0  0  0
   -0.7145   -1.2375    0.0000 C   0  0  0  0  0  0  0  0  0  0  0  0
   -1.4289   -1.6500    0.0000 C   0  0  0  0  0  0  0  0  0  0  0  0
   -2.1434   -1.2375    0.0000 C   0  0  0  0  0  0  0  0  0  0  0  0
   -2.8579   -1.6500    0.0000 C   0  0  0  0  0  0  0  0  0  0  0  0
   -3.5724   -1.2375    0.0000 C   0  0  0  0  0  0  0  0  0  0  0  0
   -2.8579   -2.4750    0.0000 O   0  0  0  0  0  0  0  0  0  0  0  0
    1.4289    0.0000    0.0000 C   0  0  0  0  0  0  0  0  0  0  0  0
    2.1434   -0.4125    0.0000 C   0  0  0  0  0  0  0  0  0  0  0  0
    2.8579    0.0000    0.0000 O   0  0  0  0  0  0  0  0  0  0  0  0
    2.8579    0.8250    0.0000 C   0  0  0  0  0  0  0  0  0  0  0  0
    2.1434   -1.2375    0.0000 C   0  0  0  0  0  0  0  0  0  0  0  0
    1.4289   -1.6500    0.0000 C   0  0  0  0  0  0  0  0  0  0  0  0
  1  2  2  0  0  0  0
  2  3  1  0  0  0  0
  3  4  2  0  0  0  0
  4  5  1  0  0  0  0
  5  6  2  0  0  0  0
  1  6  1  0  0  0  0
  6  7  1  0  0  0  0
  7  8  1  0  0  0  0
  8  9  1  0  0  0  0
  9 10  1  0  0  0  0
  9 11  2  0  0  0  0
  3 12  1  0  0  0  0
 12 13  2  0  0  0  0
 13 14  1  0  0  0  0
 14 15  1  0  0  0  0
 13 16  1  0  0  0  0
 16 17  2  0  0  0  0
  2 17  1  0  0  0  0
M  END
>  <Name>
Nabumetone

>  <CAS>
42924-53-8

>  <Formula>
C15H16O2

>  <MolWt>
228.29 

>  <Bioactivity>
Nabumetone is a non-steroidal anti-inflammatory drug and its active metabolite inhibits the COX.

>  <Pathways>
Neuroscience

>  <Target>
COX inhibitor;MPO inhibitor

>  <Receptor>
COX1, COX2;MPO

>  <Reference>
1. Hedner T, et al. Drugs, 2004, 64(20), 2315-2343.

$$$$
T1262
  Mrv1561503291623562D          

 20 22  0  0  1  0            999 V2000
    1.9469    1.3448    0.0000 C   0  0  1  0  0  0  0  0  0  0  0  0
    1.4620    0.6773    0.0000 C   0  0  1  0  0  0  0  0  0  0  0  0
    0.6773    0.9323    0.0000 N   0  0  0  0  0  0  0  0  0  0  0  0
   -0.1477    0.9323    0.0000 C   0  0  0  0  0  0  0  0  0  0  0  0
   -0.7310    0.3489    0.0000 O   0  0  0  0  0  0  0  0  0  0  0  0
   -0.1477    1.7573    0.0000 C   0  0  0  0  0  0  0  0  0  0  0  0
    0.6773    1.7573    0.0000 C   0  0  1  0  0  0  0  0  0  0  0  0
    1.4620    2.0122    0.0000 S   0  0  0  0  0  0  0  0  0  0  0  0
    1.2989    2.8209    0.0000 O   0  0  0  0  0  0  0  0  0  0  0  0
    2.0692    2.5706    0.0000 O   0  0  0  0  0  0  0  0  0  0  0  0
    1.7169   -0.1073    0.0000 C   0  0  0  0  0  0  0  0  0  0  0  0
    1.1649   -0.7204    0.0000 O   0  0  0  0  0  0  0  0  0  0  0  0
    2.5239   -0.2788    0.0000 O   0  0  0  0  0  0  0  0  0  0  0  0
    2.6656    0.9398    0.0000 C   0  0  0  0  0  0  0  0  0  0  0  0
    3.3757    1.3597    0.0000 N   0  0  0  0  0  0  0  0  0  0  0  0
    4.1329    1.0321    0.0000 C   0  0  0  0  0  0  0  0  0  0  0  0
    4.6785    1.6509    0.0000 C   0  0  0  0  0  0  0  0  0  0  0  0
    4.2585    2.3611    0.0000 N   0  0  0  0  0  0  0  0  0  0  0  0
    3.4534    2.1811    0.0000 N   0  0  0  0  0  0  0  0  0  0  0  0
    2.6656    1.7498    0.0000 C   0  0  0  0  0  0  0  0  0  0  0  0
  1  2  1  0  0  0  0
  2  3  1  0  0  0  0
  3  4  1  0  0  0  0
  4  5  2  0  0  0  0
  4  6  1  0  0  0  0
  6  7  1  0  0  0  0
  7  3  1  1  0  0  0
  7  8  1  0  0  0  0
  1  8  1  0  0  0  0
  8  9  2  0  0  0  0
  8 10  2  0  0  0  0
  2 11  1  6  0  0  0
 11 12  1  0  0  0  0
 11 13  2  0  0  0  0
  1 14  1  1  0  0  0
 14 15  1  0  0  0  0
 15 16  1  0  0  0  0
 16 17  2  0  0  0  0
 17 18  1  0  0  0  0
 18 19  2  0  0  0  0
 15 19  1  0  0  0  0
  1 20  1  6  0  0  0
M  END
>  <Name>
Tazobactam acid

>  <CAS>
89786-04-9

>  <Formula>
C10H12N4O5S

>  <MolWt>
300.29 

>  <Bioactivity>
Tazobactam is a antibacterial penicillin derivative which inhibits the action of bacterial beta-lactamases.

>  <Pathways>
Microbiology & Virology

>  <Target>
Antibiotic

>  <Receptor>
?-Lactamase

>  <Reference>
1. Overington JP, et al. Nat Rev Drug Discov. 2006 Dec;5(12):993-6. 

$$$$
T1272
  Mrv1561503291623562D          

 17 18  0  0  1  0            999 V2000
    0.7145   -1.2375    0.0000 C   0  0  2  0  0  0  0  0  0  0  0  0
    0.7145   -0.4125    0.0000 N   0  0  0  0  0  0  0  0  0  0  0  0
   -0.0000   -0.0000    0.0000 C   0  0  0  0  0  0  0  0  0  0  0  0
   -0.0000    0.8250    0.0000 N   0  0  0  0  0  0  0  0  0  0  0  0
    0.7145    1.2375    0.0000 C   0  0  0  0  0  0  0  0  0  0  0  0
    0.7145    2.0625    0.0000 N   0  0  0  0  0  0  0  0  0  0  0  0
    1.4289    0.8250    0.0000 C   0  0  0  0  0  0  0  0  0  0  0  0
    1.4289   -0.0000    0.0000 C   0  0  0  0  0  0  0  0  0  0  0  0
   -0.7145   -0.4125    0.0000 O   0  0  0  0  0  0  0  0  0  0  0  0
    1.3819   -1.7224    0.0000 O   0  0  0  0  0  0  0  0  0  0  0  0
    1.1270   -2.5070    0.0000 C   0  0  2  0  0  0  0  0  0  0  0  0
    1.6119   -3.1745    0.0000 C   0  0  0  0  0  0  0  0  0  0  0  0
    2.4324   -3.0882    0.0000 O   0  0  0  0  0  0  0  0  0  0  0  0
    0.3020   -2.5070    0.0000 C   0  0  2  0  0  0  0  0  0  0  0  0
    0.0470   -1.7224    0.0000 C   0  0  2  0  0  0  0  0  0  0  0  0
   -0.7376   -1.4675    0.0000 O   0  0  0  0  0  0  0  0  0  0  0  0
   -0.1830   -3.1745    0.0000 O   0  0  0  0  0  0  0  0  0  0  0  0
  1  2  1  6  0  0  0
  2  3  1  0  0  0  0
  3  4  1  0  0  0  0
  4  5  2  0  0  0  0
  5  6  1  0  0  0  0
  5  7  1  0  0  0  0
  7  8  2  0  0  0  0
  2  8  1  0  0  0  0
  3  9  2  0  0  0  0
  1 10  1  0  0  0  0
 10 11  1  0  0  0  0
 11 12  1  6  0  0  0
 12 13  1  0  0  0  0
 11 14  1  0  0  0  0
 14 15  1  0  0  0  0
  1 15  1  0  0  0  0
 15 16  1  6  0  0  0
 14 17  1  1  0  0  0
M  END
>  <Name>
Cytarabine

>  <CAS>
147-94-4

>  <Formula>
C9H13N3O5

>  <MolWt>
243.22 

>  <Bioactivity>
A pyrimidine nucleoside analog that is used mainly in the treatment of leukemia, especially acute non-lymphoblastic leukemia. Cytarabine is an antimetabolite antineoplastic agent that inhibits the synthesis of DNA. Its actions are specific for the S phase of the cell cycle. It also has antiviral and immunosuppressant properties. (From Martindale, The Extra Pharmacopoeia, 30th ed, p472) 

>  <Pathways>
DNA Damage/DNA Repair

>  <Target>
DNA Synthesis inhibitor

>  <Receptor>
DNA polymerase beta

>  <Reference>
1. Prakasha Gowda AS, et al. Biochemistry. 2010 Jun 15;49(23):4833-40. 

$$$$
1260141-27-2
  Mrv1561503291623562D          

 32 33  0  0  0  0            999 V2000
   -0.8028    3.7937    0.0000 C   0  0  0  0  0  0  0  0  0  0  0  0
   -0.8028    2.9687    0.0000 N   0  0  0  0  0  0  0  0  0  0  0  0
   -0.0883    2.5562    0.0000 C   0  0  0  0  0  0  0  0  0  0  0  0
   -0.0883    1.7312    0.0000 C   0  0  0  0  0  0  0  0  0  0  0  0
    0.5791    1.2463    0.0000 C   0  0  0  0  0  0  0  0  0  0  0  0
    0.3242    0.4617    0.0000 N   0  0  0  0  0  0  0  0  0  0  0  0
   -0.5008    0.4617    0.0000 C   0  0  0  0  0  0  0  0  0  0  0  0
   -0.7557    1.2463    0.0000 C   0  0  0  0  0  0  0  0  0  0  0  0
   -0.9857   -0.2057    0.0000 C   0  0  0  0  0  0  0  0  0  0  0  0
   -0.6502   -0.9594    0.0000 C   0  0  0  0  0  0  0  0  0  0  0  0
   -1.1351   -1.6269    0.0000 C   0  0  0  0  0  0  0  0  0  0  0  0
   -1.9556   -1.5406    0.0000 C   0  0  0  0  0  0  0  0  0  0  0  0
   -2.2911   -0.7870    0.0000 C   0  0  0  0  0  0  0  0  0  0  0  0
   -1.8062   -0.1195    0.0000 C   0  0  0  0  0  0  0  0  0  0  0  0
   -2.1418    0.6342    0.0000 F   0  0  0  0  0  0  0  0  0  0  0  0
    0.8091   -0.2057    0.0000 S   0  0  0  0  0  0  0  0  0  0  0  0
    0.1417   -0.6907    0.0000 O   0  0  0  0  0  0  0  0  0  0  0  0
    1.4766    0.2792    0.0000 O   0  0  0  0  0  0  0  0  0  0  0  0
    1.2940   -0.8732    0.0000 C   0  0  0  0  0  0  0  0  0  0  0  0
    2.1145   -0.7870    0.0000 C   0  0  0  0  0  0  0  0  0  0  0  0
    2.5994   -1.4544    0.0000 N   0  0  0  0  0  0  0  0  0  0  0  0
    2.2639   -2.2081    0.0000 C   0  0  0  0  0  0  0  0  0  0  0  0
    1.4434   -2.2943    0.0000 C   0  0  0  0  0  0  0  0  0  0  0  0
    0.9585   -1.6269    0.0000 C   0  0  0  0  0  0  0  0  0  0  0  0
    6.4298    0.0000    0.0000 C   0  0  0  0  0  0  0  0  0  0  0  0
    5.6048    0.0000    0.0000 C   0  0  0  0  0  0  0  0  0  0  0  0
    5.1923   -0.7145    0.0000 C   0  0  0  0  0  0  0  0  0  0  0  0
    4.3673   -0.7145    0.0000 O   0  0  0  0  0  0  0  0  0  0  0  0
    5.6048   -1.4289    0.0000 O   0  0  0  0  0  0  0  0  0  0  0  0
    6.8423    0.7145    0.0000 C   0  0  0  0  0  0  0  0  0  0  0  0
    6.4298    1.4289    0.0000 O   0  0  0  0  0  0  0  0  0  0  0  0
    7.6673    0.7145    0.0000 O   0  0  0  0  0  0  0  0  0  0  0  0
  1  2  1  0  0  0  0
  2  3  1  0  0  0  0
  3  4  1  0  0  0  0
  4  5  2  0  0  0  0
  5  6  1  0  0  0  0
  6  7  1  0  0  0  0
  7  8  2  0  0  0  0
  4  8  1  0  0  0  0
  7  9  1  0  0  0  0
  9 10  2  0  0  0  0
 10 11  1  0  0  0  0
 11 12  2  0  0  0  0
 12 13  1  0  0  0  0
 13 14  2  0  0  0  0
  9 14  1  0  0  0  0
 14 15  1  0  0  0  0
  6 16  1  0  0  0  0
 16 17  2  0  0  0  0
 16 18  2  0  0  0  0
 16 19  1  0  0  0  0
 19 20  2  0  0  0  0
 20 21  1  0  0  0  0
 21 22  2  0  0  0  0
 22 23  1  0  0  0  0
 23 24  2  0  0  0  0
 19 24  1  0  0  0  0
 25 26  2  0  0  0  0
 26 27  1  0  0  0  0
 27 28  2  0  0  0  0
 27 29  1  0  0  0  0
 25 30  1  4  0  0  0
 30 31  2  0  0  0  0
 30 32  1  0  0  0  0
M  END
>  <Name>
TAK-438(Vonoprazan fumarate)

>  <CAS>
1260141-27-2

>  <Formula>
C17H16FN3O2S.C4H4O4

>  <MolWt>
461.46 

>  <Bioactivity>
Vonoprazan Fumarate (TAK-438) is a novel P-CAB (potassium-competitive acid blocker) that reversibly inhibits H+/K+, ATPase with IC50 of 19 nM (pH 6.5), controls gastric acid secretion. Phase 3.

>  <Pathways>
Membrane Transporter/Ion Channel

>  <Target>
ATPase inhibitor; Proton Pump inhibitor

>  <Receptor>
H+/K+-ATPase

>  <Reference>
1. Arikawa Y, et al. J Med Chem, 2012, 55(9), 4446-4456.

$$$$
15307-86-5
  Mrv1561503291623562D          

 19 20  0  0  0  0            999 V2000
    2.8579   -2.4750    0.0000 C   0  0  0  0  0  0  0  0  0  0  0  0
    2.8579   -1.6500    0.0000 C   0  0  0  0  0  0  0  0  0  0  0  0
    2.1434   -1.2375    0.0000 C   0  0  0  0  0  0  0  0  0  0  0  0
    1.4289   -1.6500    0.0000 C   0  0  0  0  0  0  0  0  0  0  0  0
    1.4289   -2.4750    0.0000 C   0  0  0  0  0  0  0  0  0  0  0  0
    2.1434   -2.8875    0.0000 C   0  0  0  0  0  0  0  0  0  0  0  0
    2.1434   -0.4125    0.0000 C   0  0  0  0  0  0  0  0  0  0  0  0
    1.4289   -0.0000    0.0000 C   0  0  0  0  0  0  0  0  0  0  0  0
    1.4289    0.8250    0.0000 O   0  0  0  0  0  0  0  0  0  0  0  0
    0.7145   -0.4125    0.0000 O   0  0  0  0  0  0  0  0  0  0  0  0
    3.5724   -1.2375    0.0000 N   0  0  0  0  0  0  0  0  0  0  0  0
    4.2868   -1.6500    0.0000 C   0  0  0  0  0  0  0  0  0  0  0  0
    5.0013   -1.2375    0.0000 C   0  0  0  0  0  0  0  0  0  0  0  0
    5.7158   -1.6500    0.0000 C   0  0  0  0  0  0  0  0  0  0  0  0
    5.7158   -2.4750    0.0000 C   0  0  0  0  0  0  0  0  0  0  0  0
    5.0013   -2.8875    0.0000 C   0  0  0  0  0  0  0  0  0  0  0  0
    4.2868   -2.4750    0.0000 C   0  0  0  0  0  0  0  0  0  0  0  0
    3.5724   -2.8875    0.0000 Cl  0  0  0  0  0  0  0  0  0  0  0  0
    5.0013   -0.4125    0.0000 Cl  0  0  0  0  0  0  0  0  0  0  0  0
  1  2  2  0  0  0  0
  2  3  1  0  0  0  0
  3  4  2  0  0  0  0
  4  5  1  0  0  0  0
  5  6  2  0  0  0  0
  1  6  1  0  0  0  0
  3  7  1  0  0  0  0
  7  8  1  0  0  0  0
  8  9  2  0  0  0  0
  8 10  1  0  0  0  0
  2 11  1  0  0  0  0
 11 12  1  0  0  0  0
 12 13  2  0  0  0  0
 13 14  1  0  0  0  0
 14 15  2  0  0  0  0
 15 16  1  0  0  0  0
 16 17  2  0  0  0  0
 12 17  1  0  0  0  0
 17 18  1  0  0  0  0
 13 19  1  0  0  0  0
M  END
>  <Name>
Diciofenac

>  <CAS>
15307-86-5

>  <Formula>
C14H11Cl2NO2

>  <MolWt>
296.15 

>  <Bioactivity>
Diclofenac is a nonsteroidal anti-inflammatory drug (NSAID) taken or applied to reduce inflammation and as an analgesic reducing pain in certain conditions. It is supplied as or contained in medications under a variety of trade names.

>  <Pathways>
Neuroscience

>  <Target>
COX inhibitor

>  <Receptor>
Prostaglandin G/H synthase

>  <Reference>
1. Prokkola JM, et al. Aquat Toxicol. 2015 Jan;158:116-24. 

$$$$
154-69-8
  Mrv1561503291623562D          

 21 20  0  0  0  0            999 V2000
    0.4125    0.0000    0.0000 H   0  3  0  0  0  0  0  0  0  0  0  0
    4.4416   -1.4980    0.0000 C   0  0  0  0  0  0  0  0  0  0  0  0
    4.4416   -2.3230    0.0000 C   0  0  0  0  0  0  0  0  0  0  0  0
    3.7272   -2.7355    0.0000 C   0  0  0  0  0  0  0  0  0  0  0  0
    3.0127   -2.3230    0.0000 C   0  0  0  0  0  0  0  0  0  0  0  0
    3.0127   -1.4980    0.0000 N   0  0  0  0  0  0  0  0  0  0  0  0
    3.7272   -1.0855    0.0000 C   0  0  0  0  0  0  0  0  0  0  0  0
    3.7272   -0.2605    0.0000 N   0  0  0  0  0  0  0  0  0  0  0  0
    3.0127    0.1520    0.0000 C   0  0  0  0  0  0  0  0  0  0  0  0
    3.0127    0.9770    0.0000 C   0  0  0  0  0  0  0  0  0  0  0  0
    2.2982    1.3895    0.0000 C   0  0  0  0  0  0  0  0  0  0  0  0
    2.2982    2.2145    0.0000 C   0  0  0  0  0  0  0  0  0  0  0  0
    3.0127    2.6270    0.0000 C   0  0  0  0  0  0  0  0  0  0  0  0
    3.7272    2.2145    0.0000 C   0  0  0  0  0  0  0  0  0  0  0  0
    3.7272    1.3895    0.0000 C   0  0  0  0  0  0  0  0  0  0  0  0
    4.4416    0.1520    0.0000 C   0  0  0  0  0  0  0  0  0  0  0  0
    5.1561   -0.2605    0.0000 C   0  0  0  0  0  0  0  0  0  0  0  0
    5.8706    0.1520    0.0000 N   0  0  0  0  0  0  0  0  0  0  0  0
    5.8706    0.9770    0.0000 C   0  0  0  0  0  0  0  0  0  0  0  0
    6.5850   -0.2605    0.0000 C   0  0  0  0  0  0  0  0  0  0  0  0
   -0.4125    0.0000    0.0000 Cl  0  5  0  0  0  0  0  0  0  0  0  0
  2  3  2  0  0  0  0
  3  4  1  0  0  0  0
  4  5  2  0  0  0  0
  5  6  1  0  0  0  0
  6  7  2  0  0  0  0
  2  7  1  0  0  0  0
  7  8  1  0  0  0  0
  8  9  1  0  0  0  0
  9 10  1  0  0  0  0
 10 11  2  0  0  0  0
 11 12  1  0  0  0  0
 12 13  2  0  0  0  0
 13 14  1  0  0  0  0
 14 15  2  0  0  0  0
 10 15  1  0  0  0  0
  8 16  1  0  0  0  0
 16 17  1  0  0  0  0
 17 18  1  0  0  0  0
 18 19  1  0  0  0  0
 18 20  1  0  0  0  0
M  CHG  2   1   1  21  -1
M  END
>  <Name>
Tripelennamine HCl

>  <CAS>
154-69-8

>  <Formula>
C16H21N3.HCl

>  <MolWt>
291.82 

>  <Bioactivity>
A histamine H1 antagonist with low sedative action but frequent gastrointestinal irritation. It is used to treat ASTHMA; HAY FEVER; URTICARIA; and RHINITIS; and also in veterinary applications. Tripelennamine is administered by various routes, including topically. 

>  <Pathways>
Neuroscience

>  <Target>
Histamine Receptor antagonist

>  <Receptor>
Histamine H1 receptor

>  <Reference>
1. Styczynski PB, et al. Chem Res Toxicol, 1993, 6(6), 846-851.

$$$$
100299-08-9
  Mrv1561503291623562D          

 18 19  0  0  0  0            999 V2000
   -1.4205    1.2996    0.0000 N   0  5  0  0  0  0  0  0  0  0  0  0
   -1.3342    0.4791    0.0000 C   0  0  0  0  0  0  0  0  0  0  0  0
   -2.0879    0.1436    0.0000 N   0  0  0  0  0  0  0  0  0  0  0  0
   -2.6400    0.7567    0.0000 N   0  0  0  0  0  0  0  0  0  0  0  0
   -2.2275    1.4712    0.0000 N   0  0  0  0  0  0  0  0  0  0  0  0
   -0.6198    0.0666    0.0000 C   0  0  0  0  0  0  0  0  0  0  0  0
   -0.6198   -0.7584    0.0000 C   0  0  0  0  0  0  0  0  0  0  0  0
    0.0947   -1.1709    0.0000 N   0  0  0  0  0  0  0  0  0  0  0  0
    0.8092   -0.7584    0.0000 C   0  0  0  0  0  0  0  0  0  0  0  0
    0.8092    0.0666    0.0000 N   0  0  0  0  0  0  0  0  0  0  0  0
    0.0947    0.4791    0.0000 C   0  0  0  0  0  0  0  0  0  0  0  0
    0.0947    1.3041    0.0000 O   0  0  0  0  0  0  0  0  0  0  0  0
    1.5236    0.4791    0.0000 C   0  0  0  0  0  0  0  0  0  0  0  0
    2.2381    0.0666    0.0000 C   0  0  0  0  0  0  0  0  0  0  0  0
    2.2381   -0.7584    0.0000 C   0  0  0  0  0  0  0  0  0  0  0  0
    1.5236   -1.1709    0.0000 C   0  0  0  0  0  0  0  0  0  0  0  0
    1.5236   -1.9959    0.0000 C   0  0  0  0  0  0  0  0  0  0  0  0
    4.4774    0.0000    0.0000 K   0  3  0  0  0  0  0  0  0  0  0  0
  1  2  1  0  0  0  0
  2  3  2  0  0  0  0
  3  4  1  0  0  0  0
  4  5  2  0  0  0  0
  1  5  1  0  0  0  0
  2  6  1  0  0  0  0
  6  7  2  0  0  0  0
  7  8  1  0  0  0  0
  8  9  2  0  0  0  0
  9 10  1  0  0  0  0
 10 11  1  0  0  0  0
  6 11  1  0  0  0  0
 11 12  2  0  0  0  0
 10 13  1  0  0  0  0
 13 14  2  0  0  0  0
 14 15  1  0  0  0  0
 15 16  2  0  0  0  0
  9 16  1  0  0  0  0
 16 17  1  0  0  0  0
M  CHG  2   1  -1  18   1
M  END
>  <Name>
Pemirolast potassium

>  <CAS>
100299-08-9

>  <Formula>
C10H7KN6O

>  <MolWt>
266.31 

>  <Bioactivity>
Pemirolast potassium is a slightly yellow powder that is soluble in water. It is a mast cell stabilizer that acts as an antiallergic agent. As an ophthalmic aqueous sterile solution, pemirolast is used for the prevention of itching of the eyes caused by allergies such as hay fever, and allergic conjunctivitis. Pemirolast is potentially useful for prophylaxis of pulmonary hypersensitivity reactions to drugs such as paclitaxel.  

>  <Pathways>
Neuroscience

>  <Target>
Histamine Receptor antagonist

>  <Receptor>
Histamine H1 receptor

>  <Reference>
1. Kemp JP, et al. Ann Allergy, 1992, 68(6), 488-491.

$$$$
69975-86-6
  Mrv1561503291623562D          

 19 21  0  0  0  0            999 V2000
   -0.6284   -0.6979    0.0000 C   0  0  0  0  0  0  0  0  0  0  0  0
   -0.1435   -1.3654    0.0000 N   0  0  0  0  0  0  0  0  0  0  0  0
    0.6411   -1.1104    0.0000 C   0  0  0  0  0  0  0  0  0  0  0  0
    0.6411   -0.2854    0.0000 C   0  0  0  0  0  0  0  0  0  0  0  0
   -0.1435   -0.0305    0.0000 N   0  0  0  0  0  0  0  0  0  0  0  0
   -0.3984    0.7541    0.0000 C   0  0  0  0  0  0  0  0  0  0  0  0
   -1.2054    0.9256    0.0000 C   0  0  0  0  0  0  0  0  0  0  0  0
   -1.8185    0.3736    0.0000 O   0  0  0  0  0  0  0  0  0  0  0  0
   -2.5330    0.7861    0.0000 C   0  0  0  0  0  0  0  0  0  0  0  0
   -2.3615    1.5931    0.0000 C   0  0  0  0  0  0  0  0  0  0  0  0
   -1.5410    1.6793    0.0000 O   0  0  0  0  0  0  0  0  0  0  0  0
    1.3556    0.1271    0.0000 C   0  0  0  0  0  0  0  0  0  0  0  0
    2.0701   -0.2854    0.0000 N   0  0  0  0  0  0  0  0  0  0  0  0
    2.7845    0.1271    0.0000 C   0  0  0  0  0  0  0  0  0  0  0  0
    2.0701   -1.1104    0.0000 C   0  0  0  0  0  0  0  0  0  0  0  0
    1.3556   -1.5229    0.0000 N   0  0  0  0  0  0  0  0  0  0  0  0
    1.3556   -2.3479    0.0000 C   0  0  0  0  0  0  0  0  0  0  0  0
    2.7845   -1.5229    0.0000 O   0  0  0  0  0  0  0  0  0  0  0  0
    1.3556    0.9521    0.0000 O   0  0  0  0  0  0  0  0  0  0  0  0
  1  2  2  0  0  0  0
  2  3  1  0  0  0  0
  3  4  2  0  0  0  0
  4  5  1  0  0  0  0
  1  5  1  0  0  0  0
  5  6  1  0  0  0  0
  6  7  1  0  0  0  0
  7  8  1  0  0  0  0
  8  9  1  0  0  0  0
  9 10  1  0  0  0  0
 10 11  1  0  0  0  0
  7 11  1  0  0  0  0
  4 12  1  0  0  0  0
 12 13  1  0  0  0  0
 13 14  1  0  0  0  0
 13 15  1  0  0  0  0
 15 16  1  0  0  0  0
  3 16  1  0  0  0  0
 16 17  1  0  0  0  0
 15 18  2  0  0  0  0
 12 19  2  0  0  0  0
M  END
>  <Name>
Doxofylline

>  <CAS>
69975-86-6

>  <Formula>
C11H14N4O4

>  <MolWt>
266.26 

>  <Bioactivity>
Doxofylline is a phosphodiesterase inhibitor and a xanthine derivative drug for asthma.

>  <Pathways>
Metabolism

>  <Target>
PDE inhibitor

>  <Receptor>
PDE

>  <Reference>
1. Shukla D, et al. Expert Opin Pharmacother, 2009, 10(14), 2343-2356.

$$$$
T1595
  Mrv1561503291623562D          

 20 23  0  0  0  0            999 V2000
    5.9401    1.6553    0.0000 C   0  0  0  0  0  0  0  0  0  0  0  0
    5.1517    1.8985    0.0000 N   0  0  0  0  0  0  0  0  0  0  0  0
    4.5470    1.3373    0.0000 C   0  0  0  0  0  0  0  0  0  0  0  0
    4.7305    0.5330    0.0000 C   0  0  0  0  0  0  0  0  0  0  0  0
    4.2162   -0.1120    0.0000 N   0  0  0  0  0  0  0  0  0  0  0  0
    3.3912   -0.1120    0.0000 C   0  0  0  0  0  0  0  0  0  0  0  0
    2.8768    0.5330    0.0000 C   0  0  0  0  0  0  0  0  0  0  0  0
    3.0604    1.3373    0.0000 C   0  0  0  0  0  0  0  0  0  0  0  0
    3.8037    1.6953    0.0000 N   0  0  0  0  0  0  0  0  0  0  0  0
    3.8037    2.5203    0.0000 C   0  0  0  0  0  0  0  0  0  0  0  0
    3.3912    3.2347    0.0000 C   0  0  0  0  0  0  0  0  0  0  0  0
    4.2162    3.2347    0.0000 C   0  0  0  0  0  0  0  0  0  0  0  0
    2.4556    1.8985    0.0000 N   0  0  0  0  0  0  0  0  0  0  0  0
    1.6673    1.6553    0.0000 C   0  0  0  0  0  0  0  0  0  0  0  0
    1.4837    0.8510    0.0000 C   0  0  0  0  0  0  0  0  0  0  0  0
    2.0884    0.2898    0.0000 C   0  0  0  0  0  0  0  0  0  0  0  0
    3.0332   -0.8553    0.0000 O   0  0  0  0  0  0  0  0  0  0  0  0
    5.5189    0.2898    0.0000 C   0  0  0  0  0  0  0  0  0  0  0  0
    6.1237    0.8510    0.0000 C   0  0  0  0  0  0  0  0  0  0  0  0
    5.7025   -0.5145    0.0000 C   0  0  0  0  0  0  0  0  0  0  0  0
  1  2  2  0  0  0  0
  2  3  1  0  0  0  0
  3  4  2  0  0  0  0
  4  5  1  0  0  0  0
  5  6  1  0  0  0  0
  6  7  1  0  0  0  0
  7  8  2  0  0  0  0
  8  9  1  0  0  0  0
  3  9  1  0  0  0  0
  9 10  1  0  0  0  0
 10 11  1  0  0  0  0
 11 12  1  0  0  0  0
 10 12  1  0  0  0  0
  8 13  1  0  0  0  0
 13 14  2  0  0  0  0
 14 15  1  0  0  0  0
 15 16  2  0  0  0  0
  7 16  1  0  0  0  0
  6 17  2  0  0  0  0
  4 18  1  0  0  0  0
 18 19  2  0  0  0  0
  1 19  1  0  0  0  0
 18 20  1  0  0  0  0
M  END
>  <Name>
Nevirapine

>  <CAS>
129618-40-2

>  <Formula>
C15H14N4O

>  <MolWt>
266.30 

>  <Bioactivity>
Nevirapine is a Human Immunodeficiency Virus 1 Non-Nucleoside Analog Reverse Transcriptase Inhibitor. 

>  <Pathways>
DNA Damage/DNA Repair;Microbiology & Virology

>  <Target>
Reverse Transcriptase inhibitor

>  <Receptor>
Reverse Transcriptase

>  <Reference>
1. Ambrose Z, et al. J Virol. 2009 Apr; 83(8): 3826-33. 

$$$$
T1188
  Mrv1561503291623562D          

 18 19  0  0  0  0            999 V2000
    1.9239   -1.4901    0.0000 C   0  0  0  0  0  0  0  0  0  0  0  0
    1.6689   -2.2748    0.0000 N   0  0  0  0  0  0  0  0  0  0  0  0
    0.8439   -2.2748    0.0000 C   0  0  0  0  0  0  0  0  0  0  0  0
    0.5890   -1.4901    0.0000 C   0  0  0  0  0  0  0  0  0  0  0  0
    1.2564   -1.0052    0.0000 N   0  0  0  0  0  0  0  0  0  0  0  0
    1.2564   -0.1802    0.0000 C   0  0  0  0  0  0  0  0  0  0  0  0
    0.5890    0.3047    0.0000 O   0  0  0  0  0  0  0  0  0  0  0  0
    0.8439    1.0893    0.0000 C   0  0  0  0  0  0  0  0  0  0  0  0
    0.3590    1.7568    0.0000 C   0  0  0  0  0  0  0  0  0  0  0  0
    0.6946    2.5104    0.0000 O   0  0  0  0  0  0  0  0  0  0  0  0
    1.6689    1.0893    0.0000 C   0  0  0  0  0  0  0  0  0  0  0  0
    1.9239    0.3047    0.0000 C   0  0  0  0  0  0  0  0  0  0  0  0
    2.7085    0.0498    0.0000 O   0  0  0  0  0  0  0  0  0  0  0  0
    2.1538    1.7568    0.0000 O   0  0  0  0  0  0  0  0  0  0  0  0
   -0.1956   -1.2352    0.0000 O   0  0  0  0  0  0  0  0  0  0  0  0
    0.3590   -2.9422    0.0000 C   0  0  0  0  0  0  0  0  0  0  0  0
    0.6946   -3.6959    0.0000 N   0  0  0  0  0  0  0  0  0  0  0  0
   -0.4615   -2.8560    0.0000 O   0  0  0  0  0  0  0  0  0  0  0  0
  1  2  2  0  0  0  0
  2  3  1  0  0  0  0
  3  4  2  0  0  0  0
  4  5  1  0  0  0  0
  1  5  1  0  0  0  0
  5  6  1  0  0  0  0
  6  7  1  0  0  0  0
  7  8  1  0  0  0  0
  8  9  1  0  0  0  0
  9 10  1  0  0  0  0
  8 11  1  0  0  0  0
 11 12  1  0  0  0  0
  6 12  1  0  0  0  0
 12 13  1  0  0  0  0
 11 14  1  0  0  0  0
  4 15  1  0  0  0  0
  3 16  1  0  0  0  0
 16 17  1  0  0  0  0
 16 18  2  0  0  0  0
M  END
>  <Name>
Mizoribine

>  <CAS>
50924-49-7

>  <Formula>
C9H13N3O6

>  <MolWt>
259.22 

>  <Bioactivity>
Mizoribine is an imidazole nucleoside, selectively inhibits inosine monophosphate synthetase and guanosine monophosphate synthetase.

>  <Pathways>
DNA Damage/DNA Repair

>  <Target>
DNA/RNA Synthesis inhibitor

>  <Receptor>
monophosphate synthetase.

>  <Reference>
1. Turka LA, et al. J Clin Invest, 1991, 87(3), 940-948.

$$$$
T1237
  Mrv1561503291623562D          

 19 21  0  0  0  0            999 V2000
    3.3523    1.9354    0.0000 C   0  0  0  0  0  0  0  0  0  0  0  0
    3.3523    1.1104    0.0000 N   0  0  0  0  0  0  0  0  0  0  0  0
    2.6378    0.6979    0.0000 C   0  0  0  0  0  0  0  0  0  0  0  0
    1.9233    1.1104    0.0000 C   0  0  0  0  0  0  0  0  0  0  0  0
    1.9233    1.9354    0.0000 C   0  0  0  0  0  0  0  0  0  0  0  0
    2.6378    2.3479    0.0000 N   0  0  0  0  0  0  0  0  0  0  0  0
    1.1387    2.1904    0.0000 N   0  0  0  0  0  0  0  0  0  0  0  0
    0.6538    1.5229    0.0000 C   0  0  0  0  0  0  0  0  0  0  0  0
    1.1387    0.8555    0.0000 N   0  0  0  0  0  0  0  0  0  0  0  0
    2.6378   -0.1271    0.0000 S   0  0  0  0  0  0  0  0  0  0  0  0
    3.3523   -0.5396    0.0000 C   0  0  0  0  0  0  0  0  0  0  0  0
    3.4385   -1.3600    0.0000 C   0  0  0  0  0  0  0  0  0  0  0  0
    4.2455   -1.5316    0.0000 N   0  0  0  0  0  0  0  0  0  0  0  0
    4.6580   -0.8171    0.0000 C   0  0  0  0  0  0  0  0  0  0  0  0
    4.1060   -0.2040    0.0000 N   0  0  0  0  0  0  0  0  0  0  0  0
    4.2775    0.6030    0.0000 C   0  0  0  0  0  0  0  0  0  0  0  0
    2.8254   -1.9121    0.0000 N   0  3  0  0  0  0  0  0  0  0  0  0
    2.0408   -1.6571    0.0000 O   0  0  0  0  0  0  0  0  0  0  0  0
    2.9970   -2.7190    0.0000 O   0  5  0  0  0  0  0  0  0  0  0  0
  1  2  2  0  0  0  0
  2  3  1  0  0  0  0
  3  4  2  0  0  0  0
  4  5  1  0  0  0  0
  5  6  2  0  0  0  0
  1  6  1  0  0  0  0
  5  7  1  0  0  0  0
  7  8  2  0  0  0  0
  8  9  1  0  0  0  0
  4  9  1  0  0  0  0
  3 10  1  0  0  0  0
 10 11  1  0  0  0  0
 11 12  2  0  0  0  0
 12 13  1  0  0  0  0
 13 14  2  0  0  0  0
 14 15  1  0  0  0  0
 11 15  1  0  0  0  0
 15 16  1  0  0  0  0
 12 17  1  0  0  0  0
 17 18  2  0  0  0  0
 17 19  1  0  0  0  0
M  CHG  2  17   1  19  -1
M  END
>  <Name>
Azathioprine

>  <CAS>
446-86-6

>  <Formula>
C9H7N7O2S

>  <MolWt>
277.26 

>  <Bioactivity>
Azathioprine is an immunosuppressive drug, inhibiting purine synthesis and GTP-binding protein Rac1 activation, used in the treatment of organ transplantation and autoimmune diseases.

>  <Pathways>
DNA Damage/DNA Repair

>  <Target>
Rac1 inhibitor;DNA sythesis inhibitor

>  <Receptor>
Rac1;HGPRT

>  <Reference>
1. Tiede I, et al. J Clin Invest, 2003, 111(8), 1133-1145.

$$$$
196597-26-9
  Mrv1561503291623562D          

 19 21  0  0  1  0            999 V2000
    0.3805   -1.4201    0.0000 C   0  0  1  0  0  0  0  0  0  0  0  0
    0.2943   -0.5996    0.0000 C   0  0  0  0  0  0  0  0  0  0  0  0
   -0.5127   -0.4281    0.0000 C   0  0  0  0  0  0  0  0  0  0  0  0
   -0.7676    0.3566    0.0000 C   0  0  0  0  0  0  0  0  0  0  0  0
   -0.2156    0.9697    0.0000 C   0  0  0  0  0  0  0  0  0  0  0  0
    0.5914    0.7981    0.0000 C   0  0  0  0  0  0  0  0  0  0  0  0
    0.8463    0.0135    0.0000 C   0  0  0  0  0  0  0  0  0  0  0  0
    1.6713    0.0135    0.0000 C   0  0  0  0  0  0  0  0  0  0  0  0
    1.9262    0.7981    0.0000 C   0  0  0  0  0  0  0  0  0  0  0  0
    1.2588    1.2831    0.0000 O   0  0  0  0  0  0  0  0  0  0  0  0
   -0.9252   -1.1425    0.0000 C   0  0  0  0  0  0  0  0  0  0  0  0
   -0.3732   -1.7556    0.0000 C   0  0  0  0  0  0  0  0  0  0  0  0
    1.0950   -1.8326    0.0000 C   0  0  0  0  0  0  0  0  0  0  0  0
    1.8094   -1.4201    0.0000 C   0  0  0  0  0  0  0  0  0  0  0  0
    2.5239   -1.8326    0.0000 N   0  0  0  0  0  0  0  0  0  0  0  0
    3.2384   -1.4201    0.0000 C   0  0  0  0  0  0  0  0  0  0  0  0
    3.2384   -0.5951    0.0000 O   0  0  0  0  0  0  0  0  0  0  0  0
    3.9529   -1.8326    0.0000 C   0  0  0  0  0  0  0  0  0  0  0  0
    4.6673   -1.4201    0.0000 C   0  0  0  0  0  0  0  0  0  0  0  0
  1  2  1  0  0  0  0
  2  3  2  0  0  0  0
  3  4  1  0  0  0  0
  4  5  2  0  0  0  0
  5  6  1  0  0  0  0
  6  7  2  0  0  0  0
  2  7  1  0  0  0  0
  7  8  1  0  0  0  0
  8  9  1  0  0  0  0
  9 10  1  0  0  0  0
  6 10  1  0  0  0  0
  3 11  1  0  0  0  0
 11 12  1  0  0  0  0
  1 12  1  0  0  0  0
  1 13  1  6  0  0  0
 13 14  1  0  0  0  0
 14 15  1  0  0  0  0
 15 16  1  0  0  0  0
 16 17  2  0  0  0  0
 16 18  1  0  0  0  0
 18 19  1  0  0  0  0
M  END
>  <Name>
Ramelteon

>  <CAS>
196597-26-9

>  <Formula>
C16H21NO2

>  <MolWt>
259.35 

>  <Bioactivity>
Ramelteon is the first in a new class of sleep agents that selectively binds to the melatonin receptors in the suprachiasmatic nucleus (SCN). It is used for insomnia, particularly delayed sleep onset. Ramelteon has not been shown to produce dependence and has shown no potential for abuse. 

>  <Pathways>
GPCR/G Protein

>  <Target>
Melatonin receptor

>  <Receptor>
Melatonin receptor

>  <Reference>
1. Kato K, et al. Neuropharmacology. 2005 Feb;48(2):301-10.

$$$$
302-79-4
  Mrv1561503291623562D          

 22 22  0  0  0  0            999 V2000
    0.1842    1.8695    0.0000 C   0  0  0  0  0  0  0  0  0  0  0  0
    0.7145    1.2375    0.0000 C   0  0  0  0  0  0  0  0  0  0  0  0
    1.4289    0.8250    0.0000 C   0  0  0  0  0  0  0  0  0  0  0  0
    1.4289    0.0000    0.0000 C   0  0  0  0  0  0  0  0  0  0  0  0
    0.7145   -0.4125    0.0000 C   0  0  0  0  0  0  0  0  0  0  0  0
    0.0000   -0.0000    0.0000 C   0  0  0  0  0  0  0  0  0  0  0  0
    0.0000    0.8250    0.0000 C   0  0  0  0  0  0  0  0  0  0  0  0
    2.1434   -0.4125    0.0000 C   0  0  0  0  0  0  0  0  0  0  0  0
    2.1434    1.2375    0.0000 C   0  0  0  0  0  0  0  0  0  0  0  0
    2.8579    0.8250    0.0000 C   0  0  0  0  0  0  0  0  0  0  0  0
    3.5724    1.2375    0.0000 C   0  0  0  0  0  0  0  0  0  0  0  0
    4.2868    0.8250    0.0000 C   0  0  0  0  0  0  0  0  0  0  0  0
    5.0013    1.2375    0.0000 C   0  0  0  0  0  0  0  0  0  0  0  0
    5.7158    0.8250    0.0000 C   0  0  0  0  0  0  0  0  0  0  0  0
    6.4302    1.2375    0.0000 C   0  0  0  0  0  0  0  0  0  0  0  0
    7.1447    0.8250    0.0000 C   0  0  0  0  0  0  0  0  0  0  0  0
    7.8592    1.2375    0.0000 C   0  0  0  0  0  0  0  0  0  0  0  0
    7.8592    2.0625    0.0000 O   0  0  0  0  0  0  0  0  0  0  0  0
    8.5737    0.8250    0.0000 O   0  0  0  0  0  0  0  0  0  0  0  0
    6.4302    2.0625    0.0000 C   0  0  0  0  0  0  0  0  0  0  0  0
    3.5724    2.0625    0.0000 C   0  0  0  0  0  0  0  0  0  0  0  0
    1.2448    1.8695    0.0000 C   0  0  0  0  0  0  0  0  0  0  0  0
  1  2  1  0  0  0  0
  2  3  1  0  0  0  0
  3  4  2  0  0  0  0
  4  5  1  0  0  0  0
  5  6  1  0  0  0  0
  6  7  1  0  0  0  0
  2  7  1  0  0  0  0
  4  8  1  0  0  0  0
  3  9  1  0  0  0  0
  9 10  2  0  0  0  0
 10 11  1  0  0  0  0
 11 12  2  0  0  0  0
 12 13  1  0  0  0  0
 13 14  2  0  0  0  0
 14 15  1  0  0  0  0
 15 16  2  0  0  0  0
 16 17  1  0  0  0  0
 17 18  1  0  0  0  0
 17 19  2  0  0  0  0
 15 20  1  0  0  0  0
 11 21  1  0  0  0  0
  2 22  1  0  0  0  0
M  END
>  <Name>
Tretinoin

>  <CAS>
302-79-4

>  <Formula>
C20H28O2

>  <MolWt>
300.44 

>  <Bioactivity>
An important regulator of GENE EXPRESSION during growth and development, and in NEOPLASMS. Tretinoin, also known as retinoic acid and derived from maternal VITAMIN A, is essential for normal GROWTH; and EMBRYONIC DEVELOPMENT. An excess of tretinoin can be teratogenic. It is used in the treatment of PSORIASIS; ACNE VULGARIS; and several other SKIN DISEASES. It has also been approved for use in promyelocytic leukemia (LEUKEMIA, PROMYELOCYTIC, ACUTE).


>  <Pathways>
Metabolism

>  <Target>
RXR/RAR agonist

>  <Receptor>
RXR, RAR

>  <Reference>
1. Manzano VM, et al. J Pharmacol Exp Ther, 1999, 289(1), 123-132.

$$$$
T1057
  Mrv1561503291623562D          

 34 38  0  0  0  0            999 V2000
   -1.4087    0.0165    0.0000 C   0  0  0  0  0  0  0  0  0  0  0  0
   -0.5837    0.0165    0.0000 C   0  0  0  0  0  0  0  0  0  0  0  0
   -0.1712   -0.6979    0.0000 O   0  0  0  0  0  0  0  0  0  0  0  0
    0.6538   -0.6979    0.0000 C   0  0  0  0  0  0  0  0  0  0  0  0
    1.1387   -0.0305    0.0000 N   0  0  0  0  0  0  0  0  0  0  0  0
    1.9233   -0.2854    0.0000 C   0  0  0  0  0  0  0  0  0  0  0  0
    2.6378    0.1271    0.0000 C   0  0  0  0  0  0  0  0  0  0  0  0
    3.3523   -0.2854    0.0000 C   0  0  0  0  0  0  0  0  0  0  0  0
    3.3523   -1.1104    0.0000 C   0  0  0  0  0  0  0  0  0  0  0  0
    2.6378   -1.5229    0.0000 C   0  0  0  0  0  0  0  0  0  0  0  0
    1.9233   -1.1104    0.0000 C   0  0  0  0  0  0  0  0  0  0  0  0
    1.1387   -1.3654    0.0000 N   0  0  0  0  0  0  0  0  0  0  0  0
    0.8838   -2.1500    0.0000 C   0  0  0  0  0  0  0  0  0  0  0  0
    0.0768   -2.3215    0.0000 C   0  0  0  0  0  0  0  0  0  0  0  0
   -0.1781   -3.1062    0.0000 C   0  0  0  0  0  0  0  0  0  0  0  0
   -0.9851   -3.2777    0.0000 C   0  0  0  0  0  0  0  0  0  0  0  0
   -1.5371   -2.6646    0.0000 C   0  0  0  0  0  0  0  0  0  0  0  0
   -1.2822   -1.8800    0.0000 C   0  0  0  0  0  0  0  0  0  0  0  0
   -0.4752   -1.7084    0.0000 C   0  0  0  0  0  0  0  0  0  0  0  0
   -2.3441   -2.8361    0.0000 C   0  0  0  0  0  0  0  0  0  0  0  0
   -2.5990   -3.6207    0.0000 C   0  0  0  0  0  0  0  0  0  0  0  0
   -3.4060   -3.7923    0.0000 C   0  0  0  0  0  0  0  0  0  0  0  0
   -3.9580   -3.1792    0.0000 C   0  0  0  0  0  0  0  0  0  0  0  0
   -3.7031   -2.3945    0.0000 C   0  0  0  0  0  0  0  0  0  0  0  0
   -2.8961   -2.2230    0.0000 C   0  0  0  0  0  0  0  0  0  0  0  0
   -2.6412   -1.4384    0.0000 C   0  0  0  0  0  0  0  0  0  0  0  0
   -3.1261   -0.7710    0.0000 N   0  0  0  0  0  0  0  0  0  0  0  0
   -2.6412   -0.1035    0.0000 C   0  0  0  0  0  0  0  0  0  0  0  0
   -2.8961    0.6811    0.0000 O   0  0  0  0  0  0  0  0  0  0  0  0
   -1.8566   -0.3585    0.0000 O   0  0  0  0  0  0  0  0  0  0  0  0
   -1.8566   -1.1835    0.0000 N   0  0  0  0  0  0  0  0  0  0  0  0
    2.6378   -2.3479    0.0000 C   0  0  0  0  0  0  0  0  0  0  0  0
    1.9233   -2.7604    0.0000 O   0  0  0  0  0  0  0  0  0  0  0  0
    3.3523   -2.7604    0.0000 O   0  0  0  0  0  0  0  0  0  0  0  0
  1  2  1  0  0  0  0
  2  3  1  0  0  0  0
  3  4  1  0  0  0  0
  4  5  2  0  0  0  0
  5  6  1  0  0  0  0
  6  7  2  0  0  0  0
  7  8  1  0  0  0  0
  8  9  2  0  0  0  0
  9 10  1  0  0  0  0
 10 11  2  0  0  0  0
  6 11  1  0  0  0  0
 11 12  1  0  0  0  0
  4 12  1  0  0  0  0
 12 13  1  0  0  0  0
 13 14  1  0  0  0  0
 14 15  2  0  0  0  0
 15 16  1  0  0  0  0
 16 17  2  0  0  0  0
 17 18  1  0  0  0  0
 18 19  2  0  0  0  0
 14 19  1  0  0  0  0
 17 20  1  0  0  0  0
 20 21  2  0  0  0  0
 21 22  1  0  0  0  0
 22 23  2  0  0  0  0
 23 24  1  0  0  0  0
 24 25  2  0  0  0  0
 20 25  1  0  0  0  0
 25 26  1  0  0  0  0
 26 27  2  0  0  0  0
 27 28  1  0  0  0  0
 28 29  2  0  0  0  0
 28 30  1  0  0  0  0
 30 31  1  0  0  0  0
 26 31  1  0  0  0  0
 10 32  1  0  0  0  0
 32 33  2  0  0  0  0
 32 34  1  0  0  0  0
M  END
>  <Name>
Azilsartan

>  <CAS>
147403-03-0

>  <Formula>
C25H20N4O5

>  <MolWt>
456.46 

>  <Bioactivity>
Azilsartan medoxomil is an angiotensin II receptor antagonist indicated for the treatment of mild to moderate essential hypertension. Azilsartan medoxomil is a prodrug of Azilsartan marketed as "Edarbi" by Takeda. Azilsartan medoxomil has so far been shown to be superior to olmesartan and valsartan in lowering blood pressure.


>  <Pathways>
Angiogenesis

>  <Target>
AGTR antagonist

>  <Receptor>
AGTR1

>  <Reference>
1. Ojima M, et al. J Pharmacol Exp Ther, 2011, 336(3), 801-808.

$$$$
T2399
  Mrv1561503291623562D          

 28 29  0  0  1  0            999 V2000
    2.4304   -2.9427    0.0000 C   0  0  2  0  0  0  0  0  0  0  0  0
    1.6203   -2.7868    0.0000 N   0  0  0  0  0  0  0  0  0  0  0  0
    1.0802   -3.4105    0.0000 C   0  0  0  0  0  0  0  0  0  0  0  0
    0.2700   -3.2546    0.0000 C   0  0  1  0  0  0  0  0  0  0  0  0
   -0.0000   -2.4750    0.0000 N   0  0  0  0  0  0  0  0  0  0  0  0
    0.5401   -1.8514    0.0000 C   0  0  0  0  0  0  0  0  0  0  0  0
    0.2700   -1.0718    0.0000 C   0  0  0  0  0  0  0  0  0  0  0  0
    0.8101   -0.4482    0.0000 C   0  0  0  0  0  0  0  0  0  0  0  0
    0.5401    0.3314    0.0000 N   0  0  0  0  0  0  0  0  0  0  0  0
   -0.2700    0.4873    0.0000 C   0  0  0  0  0  0  0  0  0  0  0  0
   -0.8101   -0.1363    0.0000 C   0  0  0  0  0  0  0  0  0  0  0  0
   -0.5401   -0.9159    0.0000 N   0  0  0  0  0  0  0  0  0  0  0  0
    1.3502   -2.0073    0.0000 O   0  0  0  0  0  0  0  0  0  0  0  0
   -0.2700   -3.8782    0.0000 C   0  0  0  0  0  0  0  0  0  0  0  0
   -0.0000   -4.6577    0.0000 C   0  0  0  0  0  0  0  0  0  0  0  0
    0.8101   -4.8137    0.0000 C   0  0  0  0  0  0  0  0  0  0  0  0
    1.0802   -5.5932    0.0000 C   0  0  0  0  0  0  0  0  0  0  0  0
    0.5401   -6.2168    0.0000 C   0  0  0  0  0  0  0  0  0  0  0  0
   -0.2700   -6.0609    0.0000 C   0  0  0  0  0  0  0  0  0  0  0  0
   -0.5401   -5.2814    0.0000 C   0  0  0  0  0  0  0  0  0  0  0  0
    1.3502   -4.1900    0.0000 O   0  0  0  0  0  0  0  0  0  0  0  0
    2.7004   -3.7223    0.0000 B   0  0  0  0  0  0  0  0  0  0  0  0
    3.5106   -3.8782    0.0000 O   0  0  0  0  0  0  0  0  0  0  0  0
    2.1604   -4.3459    0.0000 O   0  0  0  0  0  0  0  0  0  0  0  0
    2.9705   -2.3191    0.0000 C   0  0  0  0  0  0  0  0  0  0  0  0
    3.7806   -2.4750    0.0000 C   0  0  0  0  0  0  0  0  0  0  0  0
    4.3207   -1.8514    0.0000 C   0  0  0  0  0  0  0  0  0  0  0  0
    4.0507   -3.2546    0.0000 C   0  0  0  0  0  0  0  0  0  0  0  0
  1  2  1  0  0  0  0
  2  3  1  0  0  0  0
  3  4  1  0  0  0  0
  4  5  1  6  0  0  0
  5  6  1  0  0  0  0
  6  7  1  0  0  0  0
  7  8  2  0  0  0  0
  8  9  1  0  0  0  0
  9 10  2  0  0  0  0
 10 11  1  0  0  0  0
 11 12  2  0  0  0  0
  7 12  1  0  0  0  0
  6 13  2  0  0  0  0
  4 14  1  0  0  0  0
 14 15  1  0  0  0  0
 15 16  2  0  0  0  0
 16 17  1  0  0  0  0
 17 18  2  0  0  0  0
 18 19  1  0  0  0  0
 19 20  2  0  0  0  0
 15 20  1  0  0  0  0
  3 21  2  0  0  0  0
  1 22  1  1  0  0  0
 22 23  1  0  0  0  0
 22 24  1  0  0  0  0
  1 25  1  0  0  0  0
 25 26  1  0  0  0  0
 26 27  1  0  0  0  0
 26 28  1  0  0  0  0
M  END
>  <Name>
Bortezomib (PS-341)

>  <CAS>
179324-69-7

>  <Formula>
C19H25BN4O4

>  <MolWt>
384.24 

>  <Bioactivity>
Bortezomib (PS-341) is a potent 20S proteasome inhibitor with Ki of 0.6 nM in a cell-free assay.

>  <Pathways>
Proteases/Proteasome

>  <Target>
Protease inhibitor

>  <Receptor>
20S proteasome

>  <Reference>
1. Adams J, et al. Cancer Res, 1999, 59(11), 2615-2622.

$$$$
133-67-5
  Mrv1561503291623562D          

 20 21  0  0  0  0            999 V2000
    0.0000   -1.6500    0.0000 C   0  0  0  0  0  0  0  0  0  0  0  0
    0.7145   -1.2375    0.0000 C   0  0  0  0  0  0  0  0  0  0  0  0
    0.7145   -0.4125    0.0000 C   0  0  0  0  0  0  0  0  0  0  0  0
   -0.0000    0.0000    0.0000 C   0  0  0  0  0  0  0  0  0  0  0  0
   -0.7145   -0.4125    0.0000 C   0  0  0  0  0  0  0  0  0  0  0  0
   -0.7145   -1.2375    0.0000 C   0  0  0  0  0  0  0  0  0  0  0  0
   -1.4289   -1.6500    0.0000 Cl  0  0  0  0  0  0  0  0  0  0  0  0
   -1.4289   -0.0000    0.0000 S   0  0  0  0  0  0  0  0  0  0  0  0
   -2.1434    0.4125    0.0000 N   0  0  0  0  0  0  0  0  0  0  0  0
   -1.8414   -0.7145    0.0000 O   0  0  0  0  0  0  0  0  0  0  0  0
   -1.0164    0.7145    0.0000 O   0  0  0  0  0  0  0  0  0  0  0  0
    1.4289    0.0000    0.0000 S   0  0  0  0  0  0  0  0  0  0  0  0
    0.8986    0.6320    0.0000 O   0  0  0  0  0  0  0  0  0  0  0  0
    1.9592    0.6320    0.0000 O   0  0  0  0  0  0  0  0  0  0  0  0
    2.1434   -0.4125    0.0000 N   0  0  0  0  0  0  0  0  0  0  0  0
    2.1434   -1.2375    0.0000 C   0  0  0  0  0  0  0  0  0  0  0  0
    1.4289   -1.6500    0.0000 N   0  0  0  0  0  0  0  0  0  0  0  0
    2.8579   -1.6500    0.0000 C   0  0  0  0  0  0  0  0  0  0  0  0
    3.5724   -1.2375    0.0000 Cl  0  0  0  0  0  0  0  0  0  0  0  0
    2.8579   -2.4750    0.0000 Cl  0  0  0  0  0  0  0  0  0  0  0  0
  1  2  2  0  0  0  0
  2  3  1  0  0  0  0
  3  4  2  0  0  0  0
  4  5  1  0  0  0  0
  5  6  2  0  0  0  0
  1  6  1  0  0  0  0
  6  7  1  0  0  0  0
  5  8  1  0  0  0  0
  8  9  1  0  0  0  0
  8 10  2  0  0  0  0
  8 11  2  0  0  0  0
  3 12  1  0  0  0  0
 12 13  2  0  0  0  0
 12 14  2  0  0  0  0
 12 15  1  0  0  0  0
 15 16  1  0  0  0  0
 16 17  1  0  0  0  0
  2 17  1  0  0  0  0
 16 18  1  0  0  0  0
 18 19  1  0  0  0  0
 18 20  1  0  0  0  0
M  END
>  <Name>
Trichlormethiazide

>  <CAS>
133-67-5

>  <Formula>
C8H8Cl3N3O4S2

>  <MolWt>
380.66 

>  <Bioactivity>
Trichlormethiazide is a thiazide diuretic with properties similar to those of hydrochlorothiazide. It is usually administered for the treatment of oedema (including that which is associated with heart failure, hepatic cirrhosis and corticosteroid therapy) and hypertension. 

>  <Pathways>
Membrane Transporter/Ion Channel;Metabolism

>  <Target>
ATPase inhibitor; Carbonic Anhydrase inhibitor

>  <Receptor>
Na+, K+-ATPase;CA

>  <Reference>
1. Temperini C, et al. Bioorg Med Chem. 2009 Feb 1;17(3):1214-21. 

$$$$
T0133
  Mrv1561503291623562D          

 26 28  0  0  1  0            999 V2000
    0.5635   -0.9760    0.0000 C   0  0  2  0  0  0  0  0  0  0  0  0
    0.5635   -0.1510    0.0000 N   0  0  0  0  0  0  0  0  0  0  0  0
    1.2780    0.2615    0.0000 C   0  0  0  0  0  0  0  0  0  0  0  0
    1.9924   -0.1510    0.0000 C   0  0  0  0  0  0  0  0  0  0  0  0
    2.7069    0.2615    0.0000 C   0  0  0  0  0  0  0  0  0  0  0  0
    3.4214   -0.1510    0.0000 C   0  0  0  0  0  0  0  0  0  0  0  0
    1.9924   -0.9760    0.0000 C   0  0  0  0  0  0  0  0  0  0  0  0
    1.2780   -1.3885    0.0000 S   0  0  0  0  0  0  0  0  0  0  0  0
    1.2780    1.0865    0.0000 C   0  0  0  0  0  0  0  0  0  0  0  0
    1.9924    1.4990    0.0000 O   0  0  0  0  0  0  0  0  0  0  0  0
    0.5635    1.4990    0.0000 O   0  0  0  0  0  0  0  0  0  0  0  0
   -0.2615   -0.1510    0.0000 C   0  0  0  0  0  0  0  0  0  0  0  0
   -0.8449    0.4324    0.0000 O   0  0  0  0  0  0  0  0  0  0  0  0
   -0.2615   -0.9760    0.0000 C   0  0  1  0  0  0  0  0  0  0  0  0
   -0.8449   -1.5593    0.0000 N   0  0  0  0  0  0  0  0  0  0  0  0
   -0.6314   -2.3562    0.0000 C   0  0  0  0  0  0  0  0  0  0  0  0
   -1.2147   -2.9396    0.0000 C   0  0  0  0  0  0  0  0  0  0  0  0
   -1.0012   -3.7365    0.0000 C   0  0  0  0  0  0  0  0  0  0  0  0
   -0.2310   -4.0321    0.0000 C   0  0  0  0  0  0  0  0  0  0  0  0
   -0.2742   -4.8560    0.0000 S   0  0  0  0  0  0  0  0  0  0  0  0
   -1.0711   -5.0695    0.0000 C   0  0  0  0  0  0  0  0  0  0  0  0
   -1.5204   -4.3776    0.0000 N   0  0  0  0  0  0  0  0  0  0  0  0
   -1.3667   -5.8397    0.0000 N   0  0  0  0  0  0  0  0  0  0  0  0
   -2.0116   -2.7261    0.0000 N   0  0  0  0  0  0  0  0  0  0  0  0
   -2.2251   -1.9292    0.0000 O   0  0  0  0  0  0  0  0  0  0  0  0
    0.1655   -2.5698    0.0000 O   0  0  0  0  0  0  0  0  0  0  0  0
  1  2  1  6  0  0  0
  2  3  1  0  0  0  0
  3  4  2  0  0  0  0
  4  5  1  0  0  0  0
  5  6  2  0  0  0  0
  4  7  1  0  0  0  0
  7  8  1  0  0  0  0
  1  8  1  0  0  0  0
  3  9  1  0  0  0  0
  9 10  1  0  0  0  0
  9 11  2  0  0  0  0
  2 12  1  0  0  0  0
 12 13  2  0  0  0  0
 12 14  1  0  0  0  0
  1 14  1  0  0  0  0
 14 15  1  6  0  0  0
 15 16  1  0  0  0  0
 16 17  1  0  0  0  0
 17 18  1  0  0  0  0
 18 19  2  0  0  0  0
 19 20  1  0  0  0  0
 20 21  1  0  0  0  0
 21 22  2  0  0  0  0
 18 22  1  0  0  0  0
 21 23  1  0  0  0  0
 17 24  2  0  0  0  0
 24 25  1  0  0  0  0
 16 26  2  0  0  0  0
M  END
>  <Name>
Cefdinir

>  <CAS>
91832-40-5

>  <Formula>
C14H13N5O5S2

>  <MolWt>
395.41 

>  <Bioactivity>
Cefdinir is a bacteriocidal antibiotic.

>  <Pathways>
Microbiology & Virology

>  <Target>
Antibiotic

>  <Receptor>
PBPs;MPO

>  <Reference>
1. Ochiai S, et al. J Antimicrob Chemother. 2007 Jul;60(1):54-60.

$$$$
138890-62-7
  Mrv1561503291623562D          

 23 24  0  0  1  0            999 V2000
    0.7145   -0.4125    0.0000 C   0  0  2  0  0  0  0  0  0  0  0  0
    0.0000   -0.0000    0.0000 C   0  0  0  0  0  0  0  0  0  0  0  0
    0.0000    0.8250    0.0000 C   0  0  0  0  0  0  0  0  0  0  0  0
    0.7145    1.2375    0.0000 S   0  0  0  0  0  0  0  0  0  0  0  0
    1.4289    0.8250    0.0000 N   0  0  0  0  0  0  0  0  0  0  0  0
    2.1434    1.2375    0.0000 C   0  0  0  0  0  0  0  0  0  0  0  0
    2.8579    0.8250    0.0000 C   0  0  0  0  0  0  0  0  0  0  0  0
    3.5724    1.2375    0.0000 C   0  0  0  0  0  0  0  0  0  0  0  0
    4.2868    0.8250    0.0000 O   0  0  0  0  0  0  0  0  0  0  0  0
    5.0013    1.2375    0.0000 C   0  0  0  0  0  0  0  0  0  0  0  0
    1.4289   -0.0000    0.0000 C   0  0  0  0  0  0  0  0  0  0  0  0
    0.3272    1.9659    0.0000 O   0  0  0  0  0  0  0  0  0  0  0  0
    1.1018    1.9659    0.0000 O   0  0  0  0  0  0  0  0  0  0  0  0
   -0.7846    1.0799    0.0000 S   0  0  0  0  0  0  0  0  0  0  0  0
   -1.2695    0.4125    0.0000 C   0  0  0  0  0  0  0  0  0  0  0  0
   -0.7846   -0.2549    0.0000 C   0  0  0  0  0  0  0  0  0  0  0  0
   -2.0945    0.4125    0.0000 S   0  0  0  0  0  0  0  0  0  0  0  0
   -2.9195    0.4125    0.0000 N   0  0  0  0  0  0  0  0  0  0  0  0
   -2.0945    1.2375    0.0000 O   0  0  0  0  0  0  0  0  0  0  0  0
   -2.0945   -0.4125    0.0000 O   0  0  0  0  0  0  0  0  0  0  0  0
    0.7145   -1.2375    0.0000 N   0  0  0  0  0  0  0  0  0  0  0  0
    1.4289   -1.6500    0.0000 C   0  0  0  0  0  0  0  0  0  0  0  0
    1.4289   -2.4750    0.0000 C   0  0  0  0  0  0  0  0  0  0  0  0
  1  2  1  0  0  0  0
  2  3  2  0  0  0  0
  3  4  1  0  0  0  0
  4  5  1  0  0  0  0
  5  6  1  0  0  0  0
  6  7  1  0  0  0  0
  7  8  1  0  0  0  0
  8  9  1  0  0  0  0
  9 10  1  0  0  0  0
  5 11  1  0  0  0  0
  1 11  1  0  0  0  0
  4 12  2  0  0  0  0
  4 13  2  0  0  0  0
  3 14  1  0  0  0  0
 14 15  1  0  0  0  0
 15 16  2  0  0  0  0
  2 16  1  0  0  0  0
 15 17  1  0  0  0  0
 17 18  1  0  0  0  0
 17 19  2  0  0  0  0
 17 20  2  0  0  0  0
  1 21  1  6  0  0  0
 21 22  1  0  0  0  0
 22 23  1  0  0  0  0
M  END
>  <Name>
Brinzolamide

>  <CAS>
138890-62-7

>  <Formula>
C12H21N3O5S3

>  <MolWt>
383.51 

>  <Bioactivity>
Brinzolamide is a highly specific, non-competitive, reversible carbonic anhydrase inhibitor. Carbonic anhydrase (CA) is an enzyme found in many tissues of the body including the eye. It catalyzes the reversible reaction involving the hydration of carbon dioxide and the dehydration of carbonic acid. In humans, carbonic anhydrase exists as a number of isoenzymes, the most active being carbonic anhydrase II (CA-II). Inhibition of carbonic anhydrase in the ciliary processes of the eye decreases aqueous humor secretion, presumably by slowing the formation of bicarbonate ions with subsequent reduction in sodium and fluid transport. The result is a reduction in intraocular pressure. Brinzolamide is indicated in the treatment of elevated intraocular pressure in patients with ocular hypertension or open-angle glaucoma.  

>  <Pathways>
Metabolism

>  <Target>
Carbonic anhydrase inhibitor

>  <Receptor>
CA

>  <Reference>
1. Stams T, et al. Protein Sci. 1998 Mar;7(3):556-63. 

$$$$
104344-23-2
  Mrv1561503291623562D          

 54 53  0  0  0  0            999 V2000
   -1.0872    1.3451    0.0000 C   0  0  0  0  0  0  0  0  0  0  0  0
   -0.3728    1.7576    0.0000 C   0  0  0  0  0  0  0  0  0  0  0  0
    0.3417    1.3451    0.0000 C   0  0  0  0  0  0  0  0  0  0  0  0
    0.3417    0.5201    0.0000 C   0  0  0  0  0  0  0  0  0  0  0  0
   -0.3728    0.1076    0.0000 C   0  0  0  0  0  0  0  0  0  0  0  0
   -1.0872    0.5201    0.0000 C   0  0  0  0  0  0  0  0  0  0  0  0
   -1.8017    0.1076    0.0000 O   0  0  0  0  0  0  0  0  0  0  0  0
   -1.8017   -0.7174    0.0000 C   0  0  0  0  0  0  0  0  0  0  0  0
   -2.5162   -1.1299    0.0000 C   0  0  0  0  0  0  0  0  0  0  0  0
   -2.5162   -1.9549    0.0000 C   0  0  0  0  0  0  0  0  0  0  0  0
   -3.2307   -2.3674    0.0000 N   0  0  0  0  0  0  0  0  0  0  0  0
   -3.2307   -3.1924    0.0000 C   0  0  0  0  0  0  0  0  0  0  0  0
   -3.9451   -3.6049    0.0000 C   0  0  0  0  0  0  0  0  0  0  0  0
   -2.5162   -3.6049    0.0000 C   0  0  0  0  0  0  0  0  0  0  0  0
   -3.2307   -0.7174    0.0000 O   0  0  0  0  0  0  0  0  0  0  0  0
    1.0562    1.7576    0.0000 C   0  0  0  0  0  0  0  0  0  0  0  0
    1.7706    1.3451    0.0000 O   0  0  0  0  0  0  0  0  0  0  0  0
    2.4851    1.7576    0.0000 C   0  0  0  0  0  0  0  0  0  0  0  0
    3.1996    1.3451    0.0000 C   0  0  0  0  0  0  0  0  0  0  0  0
    3.9141    1.7576    0.0000 O   0  0  0  0  0  0  0  0  0  0  0  0
    4.6285    1.3451    0.0000 C   0  0  0  0  0  0  0  0  0  0  0  0
    5.3430    1.7576    0.0000 C   0  0  0  0  0  0  0  0  0  0  0  0
    4.6285    0.5201    0.0000 C   0  0  0  0  0  0  0  0  0  0  0  0
   10.5580    1.3451    0.0000 C   0  0  0  0  0  0  0  0  0  0  0  0
   11.2725    1.7576    0.0000 C   0  0  0  0  0  0  0  0  0  0  0  0
   11.9870    1.3451    0.0000 C   0  0  0  0  0  0  0  0  0  0  0  0
   11.9870    0.5201    0.0000 C   0  0  0  0  0  0  0  0  0  0  0  0
   11.2725    0.1076    0.0000 C   0  0  0  0  0  0  0  0  0  0  0  0
   10.5580    0.5201    0.0000 C   0  0  0  0  0  0  0  0  0  0  0  0
    9.8436    0.1076    0.0000 O   0  0  0  0  0  0  0  0  0  0  0  0
    9.8436   -0.7174    0.0000 C   0  0  0  0  0  0  0  0  0  0  0  0
    9.1291   -1.1299    0.0000 C   0  0  0  0  0  0  0  0  0  0  0  0
    9.1291   -1.9549    0.0000 C   0  0  0  0  0  0  0  0  0  0  0  0
    8.4146   -2.3674    0.0000 N   0  0  0  0  0  0  0  0  0  0  0  0
    8.4146   -3.1924    0.0000 C   0  0  0  0  0  0  0  0  0  0  0  0
    7.7001   -3.6049    0.0000 C   0  0  0  0  0  0  0  0  0  0  0  0
    9.1291   -3.6049    0.0000 C   0  0  0  0  0  0  0  0  0  0  0  0
    8.4146   -0.7174    0.0000 O   0  0  0  0  0  0  0  0  0  0  0  0
   12.7014    1.7576    0.0000 C   0  0  0  0  0  0  0  0  0  0  0  0
   13.4159    1.3451    0.0000 O   0  0  0  0  0  0  0  0  0  0  0  0
   14.1304    1.7576    0.0000 C   0  0  0  0  0  0  0  0  0  0  0  0
   14.8449    1.3451    0.0000 C   0  0  0  0  0  0  0  0  0  0  0  0
   15.5593    1.7576    0.0000 O   0  0  0  0  0  0  0  0  0  0  0  0
   16.2738    1.3451    0.0000 C   0  0  0  0  0  0  0  0  0  0  0  0
   16.9883    1.7576    0.0000 C   0  0  0  0  0  0  0  0  0  0  0  0
   16.2738    0.5201    0.0000 C   0  0  0  0  0  0  0  0  0  0  0  0
    1.6500   -5.9694    0.0000 O   0  0  0  0  0  0  0  0  0  0  0  0
    0.8250   -5.9694    0.0000 C   0  0  0  0  0  0  0  0  0  0  0  0
    0.4125   -6.6838    0.0000 C   0  0  0  0  0  0  0  0  0  0  0  0
   -0.4125   -6.6838    0.0000 C   0  0  0  0  0  0  0  0  0  0  0  0
   -0.8250   -7.3983    0.0000 C   0  0  0  0  0  0  0  0  0  0  0  0
   -0.4125   -8.1128    0.0000 O   0  0  0  0  0  0  0  0  0  0  0  0
   -1.6500   -7.3983    0.0000 O   0  0  0  0  0  0  0  0  0  0  0  0
    0.4125   -5.2549    0.0000 O   0  0  0  0  0  0  0  0  0  0  0  0
  1  2  2  0  0  0  0
  2  3  1  0  0  0  0
  3  4  2  0  0  0  0
  4  5  1  0  0  0  0
  5  6  2  0  0  0  0
  1  6  1  0  0  0  0
  6  7  1  0  0  0  0
  7  8  1  0  0  0  0
  8  9  1  0  0  0  0
  9 10  1  0  0  0  0
 10 11  1  0  0  0  0
 11 12  1  0  0  0  0
 12 13  1  0  0  0  0
 12 14  1  0  0  0  0
  9 15  1  0  0  0  0
  3 16  1  0  0  0  0
 16 17  1  0  0  0  0
 17 18  1  0  0  0  0
 18 19  1  0  0  0  0
 19 20  1  0  0  0  0
 20 21  1  0  0  0  0
 21 22  1  0  0  0  0
 21 23  1  0  0  0  0
 24 25  2  0  0  0  0
 25 26  1  0  0  0  0
 26 27  2  0  0  0  0
 27 28  1  0  0  0  0
 28 29  2  0  0  0  0
 24 29  1  0  0  0  0
 29 30  1  0  0  0  0
 30 31  1  0  0  0  0
 31 32  1  0  0  0  0
 32 33  1  0  0  0  0
 33 34  1  0  0  0  0
 34 35  1  0  0  0  0
 35 36  1  0  0  0  0
 35 37  1  0  0  0  0
 32 38  1  0  0  0  0
 26 39  1  0  0  0  0
 39 40  1  0  0  0  0
 40 41  1  0  0  0  0
 41 42  1  0  0  0  0
 42 43  1  0  0  0  0
 43 44  1  0  0  0  0
 44 45  1  0  0  0  0
 44 46  1  0  0  0  0
 47 48  2  0  0  0  0
 48 49  1  0  0  0  0
 49 50  2  0  0  0  0
 50 51  1  0  0  0  0
 51 52  1  0  0  0  0
 51 53  2  0  0  0  0
 48 54  1  0  0  0  0
M  END
>  <Name>
Bisoprolol fumarate

>  <CAS>
104344-23-2

>  <Formula>
C22H35NO8

>  <MolWt>
441.52 

>  <Bioactivity>
A cardioselective beta-1 adrenergic blocker. It is effective in the management of HYPERTENSION and ANGINA PECTORIS.

>  <Pathways>
GPCR/G Protein

>  <Target>
Adrenergic Receptor antagonist

>  <Receptor>
Adrenergic Receptor

>  <Reference>
1. Breed JG, et al. J Cardiovasc Pharmacol. 1992;20(5):750-5. 

$$$$
14976-57-9
  Mrv1561503291623562D          

 32 33  0  0  1  0            999 V2000
   -0.2496    0.9645    0.0000 C   0  0  1  0  0  0  0  0  0  0  0  0
   -0.9640    0.5520    0.0000 O   0  0  0  0  0  0  0  0  0  0  0  0
   -0.9640   -0.2730    0.0000 C   0  0  0  0  0  0  0  0  0  0  0  0
   -1.6785   -0.6855    0.0000 C   0  0  0  0  0  0  0  0  0  0  0  0
   -1.6785   -1.5105    0.0000 C   0  0  2  0  0  0  0  0  0  0  0  0
   -1.0111   -1.9954    0.0000 N   0  0  0  0  0  0  0  0  0  0  0  0
   -1.2660   -2.7800    0.0000 C   0  0  0  0  0  0  0  0  0  0  0  0
   -2.0910   -2.7800    0.0000 C   0  0  0  0  0  0  0  0  0  0  0  0
   -2.3459   -1.9954    0.0000 C   0  0  0  0  0  0  0  0  0  0  0  0
   -0.2264   -1.7405    0.0000 C   0  0  0  0  0  0  0  0  0  0  0  0
    0.4649    1.3770    0.0000 C   0  0  0  0  0  0  0  0  0  0  0  0
    0.4649    2.2020    0.0000 C   0  0  0  0  0  0  0  0  0  0  0  0
    1.1794    2.6145    0.0000 C   0  0  0  0  0  0  0  0  0  0  0  0
    1.8938    2.2020    0.0000 C   0  0  0  0  0  0  0  0  0  0  0  0
    2.6083    2.6145    0.0000 Cl  0  0  0  0  0  0  0  0  0  0  0  0
    1.8938    1.3770    0.0000 C   0  0  0  0  0  0  0  0  0  0  0  0
    1.1794    0.9645    0.0000 C   0  0  0  0  0  0  0  0  0  0  0  0
    0.1629    0.2500    0.0000 C   0  0  0  0  0  0  0  0  0  0  0  0
    0.9879    0.2500    0.0000 C   0  0  0  0  0  0  0  0  0  0  0  0
    1.4004   -0.4644    0.0000 C   0  0  0  0  0  0  0  0  0  0  0  0
    0.9879   -1.1789    0.0000 C   0  0  0  0  0  0  0  0  0  0  0  0
    0.1629   -1.1789    0.0000 C   0  0  0  0  0  0  0  0  0  0  0  0
   -0.2496   -0.4644    0.0000 C   0  0  0  0  0  0  0  0  0  0  0  0
   -0.6621    1.6790    0.0000 C   0  0  0  0  0  0  0  0  0  0  0  0
    7.7940    0.7145    0.0000 O   0  0  0  0  0  0  0  0  0  0  0  0
    6.9690    0.7145    0.0000 C   0  0  0  0  0  0  0  0  0  0  0  0
    6.5565    1.4289    0.0000 O   0  0  0  0  0  0  0  0  0  0  0  0
    6.5565   -0.0000    0.0000 C   0  0  0  0  0  0  0  0  0  0  0  0
    5.7315   -0.0000    0.0000 C   0  0  0  0  0  0  0  0  0  0  0  0
    5.3190   -0.7145    0.0000 C   0  0  0  0  0  0  0  0  0  0  0  0
    5.7315   -1.4289    0.0000 O   0  0  0  0  0  0  0  0  0  0  0  0
    4.4940   -0.7145    0.0000 O   0  0  0  0  0  0  0  0  0  0  0  0
  1  2  1  1  0  0  0
  2  3  1  0  0  0  0
  3  4  1  0  0  0  0
  5  4  1  6  0  0  0
  5  6  1  0  0  0  0
  6  7  1  0  0  0  0
  7  8  1  0  0  0  0
  8  9  1  0  0  0  0
  5  9  1  0  0  0  0
  6 10  1  0  0  0  0
  1 11  1  0  0  0  0
 11 12  2  0  0  0  0
 12 13  1  0  0  0  0
 13 14  2  0  0  0  0
 14 15  1  0  0  0  0
 14 16  1  0  0  0  0
 16 17  2  0  0  0  0
 11 17  1  0  0  0  0
  1 18  1  0  0  0  0
 18 19  2  0  0  0  0
 19 20  1  0  0  0  0
 20 21  2  0  0  0  0
 21 22  1  0  0  0  0
 22 23  2  0  0  0  0
 18 23  1  0  0  0  0
  1 24  1  6  0  0  0
 25 26  2  0  0  0  0
 26 27  1  0  0  0  0
 26 28  1  0  0  0  0
 28 29  2  0  0  0  0
 29 30  1  0  0  0  0
 30 31  2  0  0  0  0
 30 32  1  0  0  0  0
M  END
>  <Name>
Clemastine fumarate

>  <CAS>
14976-57-9

>  <Formula>
C25H30ClNO5

>  <MolWt>
459.97 

>  <Bioactivity>
A histamine H1 antagonist used as the hydrogen fumarate in hay fever, rhinitis, allergic skin conditions, and pruritus. It causes drowsiness.

>  <Pathways>
Neuroscience

>  <Target>
Histamine Receptor antagonist

>  <Receptor>
Histamine H1 receptor

>  <Reference>
1. Seifert R, et al. Mol Pharmacol, 1992, 42(2), 227-234.

$$$$
93793-83-0
  Mrv1561503291623562D          

 27 26  0  0  0  0            999 V2000
    0.4125    0.0000    0.0000 H   0  3  0  0  0  0  0  0  0  0  0  0
    6.3420   -0.4950    0.0000 C   0  0  0  0  0  0  0  0  0  0  0  0
    5.6275   -0.0825    0.0000 C   0  0  0  0  0  0  0  0  0  0  0  0
    4.9131   -0.4950    0.0000 C   0  0  0  0  0  0  0  0  0  0  0  0
    4.1986   -0.0825    0.0000 N   0  0  0  0  0  0  0  0  0  0  0  0
    3.4841   -0.4950    0.0000 C   0  0  0  0  0  0  0  0  0  0  0  0
    2.7696   -0.0825    0.0000 C   0  0  0  0  0  0  0  0  0  0  0  0
    2.7696    0.7425    0.0000 C   0  0  0  0  0  0  0  0  0  0  0  0
    3.4841    1.1550    0.0000 C   0  0  0  0  0  0  0  0  0  0  0  0
    4.1986    0.7425    0.0000 C   0  0  0  0  0  0  0  0  0  0  0  0
    5.6275    0.7425    0.0000 C   0  0  0  0  0  0  0  0  0  0  0  0
    6.3420    1.1550    0.0000 C   0  0  0  0  0  0  0  0  0  0  0  0
    7.0565    0.7425    0.0000 C   0  0  0  0  0  0  0  0  0  0  0  0
    7.0565   -0.0825    0.0000 C   0  0  0  0  0  0  0  0  0  0  0  0
    7.7709   -0.4950    0.0000 O   0  0  0  0  0  0  0  0  0  0  0  0
    8.4854   -0.0825    0.0000 C   0  0  0  0  0  0  0  0  0  0  0  0
    9.1999   -0.4950    0.0000 C   0  0  0  0  0  0  0  0  0  0  0  0
    9.9144   -0.0825    0.0000 C   0  0  0  0  0  0  0  0  0  0  0  0
   10.6288   -0.4950    0.0000 N   0  0  0  0  0  0  0  0  0  0  0  0
   11.3433   -0.0825    0.0000 C   0  0  0  0  0  0  0  0  0  0  0  0
   11.3433    0.7425    0.0000 O   0  0  0  0  0  0  0  0  0  0  0  0
   12.0578   -0.4950    0.0000 C   0  0  0  0  0  0  0  0  0  0  0  0
   12.7722   -0.0825    0.0000 O   0  0  0  0  0  0  0  0  0  0  0  0
   13.4867   -0.4950    0.0000 C   0  0  0  0  0  0  0  0  0  0  0  0
   14.2012   -0.0825    0.0000 O   0  0  0  0  0  0  0  0  0  0  0  0
   13.4867   -1.3200    0.0000 C   0  0  0  0  0  0  0  0  0  0  0  0
   -0.4125    0.0000    0.0000 Cl  0  5  0  0  0  0  0  0  0  0  0  0
  2  3  2  0  0  0  0
  3  4  1  0  0  0  0
  4  5  1  0  0  0  0
  5  6  1  0  0  0  0
  6  7  1  0  0  0  0
  7  8  1  0  0  0  0
  8  9  1  0  0  0  0
  9 10  1  0  0  0  0
  5 10  1  0  0  0  0
  3 11  1  0  0  0  0
 11 12  2  0  0  0  0
 12 13  1  0  0  0  0
 13 14  2  0  0  0  0
  2 14  1  0  0  0  0
 14 15  1  0  0  0  0
 15 16  1  0  0  0  0
 16 17  1  0  0  0  0
 17 18  1  0  0  0  0
 18 19  1  0  0  0  0
 19 20  1  0  0  0  0
 20 21  2  0  0  0  0
 20 22  1  0  0  0  0
 22 23  1  0  0  0  0
 23 24  1  0  0  0  0
 24 25  2  0  0  0  0
 24 26  1  0  0  0  0
M  CHG  2   1   1  27  -1
M  END
>  <Name>
Roxatidine Acetate HCl

>  <CAS>
93793-83-0

>  <Formula>
C19H29ClN2O4

>  <MolWt>
384.90 

>  <Bioactivity>
Roxatidine Acetate HCl is a specific and competitive histamin H2-receptor antagonist, with IC50 of 3.2 ?M, inhibits gastric acid secretion and ulcer formation.

>  <Pathways>
Neuroscience

>  <Target>
Histamine Receptor antagonist

>  <Receptor>
Histamine H2 receptor

>  <Reference>
1. Agrawal SS, Alvin Jose M. Syst Biol Reprod Med. 2010 Aug;56(4):286-91. 

$$$$
T0164
  Mrv1561503291623562D          

 15 13  0  0  0  0            999 V2000
   -0.5304    1.5310    0.0000 Pt  0  2  0  0  0  0  0  0  0  0  0  0
    1.1196    0.1021    0.0000 O   0  0  0  0  0  0  0  0  0  0  0  0
    0.2946    0.1021    0.0000 C   0  0  0  0  0  0  0  0  0  0  0  0
   -0.1179    0.8165    0.0000 O   0  5  0  0  0  0  0  0  0  0  0  0
   -0.1179   -0.6124    0.0000 C   0  0  0  0  0  0  0  0  0  0  0  0
    0.2946   -1.3269    0.0000 O   0  5  0  0  0  0  0  0  0  0  0  0
   -0.9429   -0.6124    0.0000 O   0  0  0  0  0  0  0  0  0  0  0  0
    4.1913   -0.7219    0.0000 C   0  0  0  0  0  0  0  0  0  0  0  0
    4.1913    0.1031    0.0000 C   0  0  0  0  0  0  0  0  0  0  0  0
    3.4768    0.5156    0.0000 N   0  0  0  0  0  0  0  0  0  0  0  0
    4.9057    0.5156    0.0000 C   0  0  0  0  0  0  0  0  0  0  0  0
    4.9057    1.3406    0.0000 N   0  0  0  0  0  0  0  0  0  0  0  0
    5.6202    0.1031    0.0000 C   0  0  0  0  0  0  0  0  0  0  0  0
    5.6202   -0.7219    0.0000 C   0  0  0  0  0  0  0  0  0  0  0  0
    4.9057   -1.1344    0.0000 C   0  0  0  0  0  0  0  0  0  0  0  0
  2  3  2  0  0  0  0
  3  4  1  0  0  0  0
  3  5  1  0  0  0  0
  5  6  1  0  0  0  0
  5  7  2  0  0  0  0
  8  9  1  0  0  0  0
  9 10  1  0  0  0  0
  9 11  1  0  0  0  0
 11 12  1  0  0  0  0
 11 13  1  0  0  0  0
 13 14  1  0  0  0  0
 14 15  1  0  0  0  0
  8 15  1  0  0  0  0
M  CHG  3   1   2   4  -1   6  -1
M  END
>  <Name>
Oxaliplatin

>  <CAS>
61825-94-3

>  <Formula>
C8H14N2O4Pt

>  <MolWt>
397.29 

>  <Bioactivity>
Antitumor agent that forms platinum-DNA adducts. Causes intra- and interstrand DNA crosslinks blocking DNA replication and transcription. Displays higher cytotoxicity and lower nephrotoxicity than analog cisplatin and shows antitumor activity in cell line

>  <Pathways>
DNA Damage/DNA Repair

>  <Target>
DNA Synthesis inhibitor

>  <Receptor>
DNA Synthesis

>  <Reference>
1. Ehrsson H, et al. Med Oncol. 2002;19(4):261-5.

$$$$
113665-84-2
  Mrv1561503291623562D          

 21 23  0  0  1  0            999 V2000
    2.7845    0.6979    0.0000 C   0  0  1  0  0  0  0  0  0  0  0  0
    2.0701    1.1104    0.0000 N   0  0  0  0  0  0  0  0  0  0  0  0
    1.3556    0.6979    0.0000 C   0  0  0  0  0  0  0  0  0  0  0  0
    0.6411    1.1104    0.0000 C   0  0  0  0  0  0  0  0  0  0  0  0
    0.6411    1.9354    0.0000 C   0  0  0  0  0  0  0  0  0  0  0  0
   -0.1435    2.1904    0.0000 S   0  0  0  0  0  0  0  0  0  0  0  0
   -0.6284    1.5229    0.0000 C   0  0  0  0  0  0  0  0  0  0  0  0
   -0.1435    0.8555    0.0000 C   0  0  0  0  0  0  0  0  0  0  0  0
    1.3556    2.3479    0.0000 C   0  0  0  0  0  0  0  0  0  0  0  0
    2.0701    1.9354    0.0000 C   0  0  0  0  0  0  0  0  0  0  0  0
    2.7845   -0.1271    0.0000 C   0  0  0  0  0  0  0  0  0  0  0  0
    3.4990   -0.5396    0.0000 C   0  0  0  0  0  0  0  0  0  0  0  0
    3.4990   -1.3646    0.0000 C   0  0  0  0  0  0  0  0  0  0  0  0
    2.7845   -1.7771    0.0000 C   0  0  0  0  0  0  0  0  0  0  0  0
    2.0701   -1.3646    0.0000 C   0  0  0  0  0  0  0  0  0  0  0  0
    2.0701   -0.5396    0.0000 C   0  0  0  0  0  0  0  0  0  0  0  0
    1.3556   -0.1271    0.0000 Cl  0  0  0  0  0  0  0  0  0  0  0  0
    3.4990    1.1104    0.0000 C   0  0  0  0  0  0  0  0  0  0  0  0
    3.4990    1.9354    0.0000 O   0  0  0  0  0  0  0  0  0  0  0  0
    4.2135    2.3479    0.0000 C   0  0  0  0  0  0  0  0  0  0  0  0
    4.2135    0.6979    0.0000 O   0  0  0  0  0  0  0  0  0  0  0  0
  1  2  1  6  0  0  0
  2  3  1  0  0  0  0
  3  4  1  0  0  0  0
  4  5  2  0  0  0  0
  5  6  1  0  0  0  0
  6  7  1  0  0  0  0
  7  8  2  0  0  0  0
  4  8  1  0  0  0  0
  5  9  1  0  0  0  0
  9 10  1  0  0  0  0
  2 10  1  0  0  0  0
  1 11  1  0  0  0  0
 11 12  2  0  0  0  0
 12 13  1  0  0  0  0
 13 14  2  0  0  0  0
 14 15  1  0  0  0  0
 15 16  2  0  0  0  0
 11 16  1  0  0  0  0
 16 17  1  0  0  0  0
  1 18  1  0  0  0  0
 18 19  1  0  0  0  0
 19 20  1  0  0  0  0
 18 21  2  0  0  0  0
M  END
>  <Name>
Clopidogrel

>  <CAS>
113665-84-2

>  <Formula>
C16H18ClNO6S2

>  <MolWt>
307.80 

>  <Bioactivity>
Clopidogrel, an antiplatelet agent structurally and pharmacologically similar to ticlopidine, is used to inhibit blood clots in a variety of conditions such as peripheral vascular disease, coronary artery disease, and cerebrovascular disease. Clopidogrel is sold under the name Plavix by Sanofi and Bristol-Myers Squibb. The drug is an irreversible inhibitor of the P2Y12 adenosine diphosphate receptor found on the membranes of platelet cells. Clopidogrel use is associated with several serious adverse drug reactions such as severe neutropenia, various forms of hemorrhage, and cardiovascular edema.

>  <Pathways>
Metabolism

>  <Target>
P2 Receptor antagonist

>  <Receptor>
P2Y purinoceptor 12

>  <Reference>
1. Dorsam RT, et al. Hematology. 2003 Dec;8(6):359-65. 

$$$$
T0189
  Mrv1561503291623562D          

 31 33  0  0  1  0            999 V2000
   -4.4434    2.2873    0.0000 C   0  0  2  0  0  0  0  0  0  0  0  0
   -5.1578    1.8748    0.0000 N   0  0  0  0  0  0  0  0  0  0  0  0
   -5.8723    2.2873    0.0000 C   0  0  0  0  0  0  0  0  0  0  0  0
   -5.8723    3.1123    0.0000 O   0  0  0  0  0  0  0  0  0  0  0  0
   -6.5868    1.8748    0.0000 C   0  0  0  0  0  0  0  0  0  0  0  0
   -6.5868    1.0498    0.0000 C   0  0  0  0  0  0  0  0  0  0  0  0
   -7.3012    0.6373    0.0000 C   0  0  0  0  0  0  0  0  0  0  0  0
   -8.0157    1.0498    0.0000 C   0  0  0  0  0  0  0  0  0  0  0  0
   -8.7302    0.6373    0.0000 C   0  0  0  0  0  0  0  0  0  0  0  0
   -9.4447    1.0498    0.0000 C   0  0  0  0  0  0  0  0  0  0  0  0
  -10.1591    0.6373    0.0000 C   0  0  0  0  0  0  0  0  0  0  0  0
  -10.9128    0.9729    0.0000 C   0  0  0  0  0  0  0  0  0  0  0  0
  -11.4648    0.3598    0.0000 N   0  0  0  0  0  0  0  0  0  0  0  0
  -11.0523   -0.3547    0.0000 C   0  0  0  0  0  0  0  0  0  0  0  0
  -10.2454   -0.1831    0.0000 C   0  0  0  0  0  0  0  0  0  0  0  0
   -9.6933   -0.7962    0.0000 C   0  0  0  0  0  0  0  0  0  0  0  0
   -8.8864   -0.6247    0.0000 O   0  0  0  0  0  0  0  0  0  0  0  0
   -9.9483   -1.5809    0.0000 N   0  0  0  0  0  0  0  0  0  0  0  0
  -10.7552   -1.7524    0.0000 C   0  0  0  0  0  0  0  0  0  0  0  0
  -11.3073   -1.1393    0.0000 N   0  0  0  0  0  0  0  0  0  0  0  0
  -11.0102   -2.5370    0.0000 N   0  0  0  0  0  0  0  0  0  0  0  0
   -8.0157    1.8748    0.0000 C   0  0  0  0  0  0  0  0  0  0  0  0
   -7.3012    2.2873    0.0000 C   0  0  0  0  0  0  0  0  0  0  0  0
   -3.7289    1.8748    0.0000 C   0  0  0  0  0  0  0  0  0  0  0  0
   -3.0144    2.2873    0.0000 C   0  0  0  0  0  0  0  0  0  0  0  0
   -2.2999    1.8748    0.0000 C   0  0  0  0  0  0  0  0  0  0  0  0
   -1.5855    2.2873    0.0000 O   0  0  0  0  0  0  0  0  0  0  0  0
   -2.2999    1.0498    0.0000 O   0  0  0  0  0  0  0  0  0  0  0  0
   -4.4434    3.1123    0.0000 C   0  0  0  0  0  0  0  0  0  0  0  0
   -3.7289    3.5248    0.0000 O   0  0  0  0  0  0  0  0  0  0  0  0
   -5.1578    3.5248    0.0000 O   0  0  0  0  0  0  0  0  0  0  0  0
  1  2  1  1  0  0  0
  2  3  1  0  0  0  0
  3  4  2  0  0  0  0
  3  5  1  0  0  0  0
  5  6  2  0  0  0  0
  6  7  1  0  0  0  0
  7  8  2  0  0  0  0
  8  9  1  0  0  0  0
  9 10  1  0  0  0  0
 10 11  1  0  0  0  0
 11 12  2  0  0  0  0
 12 13  1  0  0  0  0
 13 14  1  0  0  0  0
 14 15  2  0  0  0  0
 11 15  1  0  0  0  0
 15 16  1  0  0  0  0
 16 17  2  0  0  0  0
 16 18  1  0  0  0  0
 18 19  2  0  0  0  0
 19 20  1  0  0  0  0
 14 20  1  0  0  0  0
 19 21  1  0  0  0  0
  8 22  1  0  0  0  0
 22 23  2  0  0  0  0
  5 23  1  0  0  0  0
  1 24  1  0  0  0  0
 24 25  1  0  0  0  0
 25 26  1  0  0  0  0
 26 27  1  0  0  0  0
 26 28  2  0  0  0  0
  1 29  1  0  0  0  0
 29 30  1  0  0  0  0
 29 31  2  0  0  0  0
M  END
>  <Name>
Pemetrexed acid

>  <CAS>
137281-23-3

>  <Formula>
C20H19N5Na2O6

>  <MolWt>
389.41 

>  <Bioactivity>
Pemetrexed is a Folate Analog Metabolic Inhibitor. The mechanism of action of pemetrexed is as a Folic Acid Metabolism Inhibitor.

>  <Pathways>
Enzyme;Metabolism

>  <Target>
DHFR inhibitor

>  <Receptor>
TS;DHFR;GART;PURH

>  <Reference>
1. Shih C, et al. Cancer Res. 1997, 57(6), 1116-1123.

$$$$
103628-48-4
  Mrv1561503291623562D          

 28 28  0  0  0  0            999 V2000
    0.1855    0.1470    0.0000 C   0  0  0  0  0  0  0  0  0  0  0  0
    0.9000   -0.2655    0.0000 C   0  0  0  0  0  0  0  0  0  0  0  0
    0.9000   -1.0905    0.0000 C   0  0  0  0  0  0  0  0  0  0  0  0
    0.1855   -1.5030    0.0000 C   0  0  0  0  0  0  0  0  0  0  0  0
   -0.5289   -1.0905    0.0000 C   0  0  0  0  0  0  0  0  0  0  0  0
   -0.5289   -0.2655    0.0000 C   0  0  0  0  0  0  0  0  0  0  0  0
   -1.3136   -0.0106    0.0000 C   0  0  0  0  0  0  0  0  0  0  0  0
   -1.7985   -0.6780    0.0000 C   0  0  0  0  0  0  0  0  0  0  0  0
   -1.3136   -1.3454    0.0000 N   0  0  0  0  0  0  0  0  0  0  0  0
   -1.5685    0.7741    0.0000 C   0  0  0  0  0  0  0  0  0  0  0  0
   -2.3755    0.9456    0.0000 C   0  0  0  0  0  0  0  0  0  0  0  0
   -2.6304    1.7302    0.0000 N   0  0  0  0  0  0  0  0  0  0  0  0
   -3.4374    1.9017    0.0000 C   0  0  0  0  0  0  0  0  0  0  0  0
   -2.0784    2.3433    0.0000 C   0  0  0  0  0  0  0  0  0  0  0  0
    1.6145    0.1470    0.0000 C   0  0  0  0  0  0  0  0  0  0  0  0
    2.3289   -0.2655    0.0000 S   0  0  0  0  0  0  0  0  0  0  0  0
    1.9164   -0.9800    0.0000 O   0  0  0  0  0  0  0  0  0  0  0  0
    2.7414    0.4490    0.0000 O   0  0  0  0  0  0  0  0  0  0  0  0
    3.0434   -0.6780    0.0000 N   0  0  0  0  0  0  0  0  0  0  0  0
    3.7579   -0.2655    0.0000 C   0  0  0  0  0  0  0  0  0  0  0  0
    6.9547   -0.2063    0.0000 C   0  0  0  0  0  0  0  0  0  0  0  0
    6.2402    0.2062    0.0000 C   0  0  0  0  0  0  0  0  0  0  0  0
    5.5257   -0.2063    0.0000 O   0  0  0  0  0  0  0  0  0  0  0  0
    6.2402    1.0312    0.0000 O   0  0  0  0  0  0  0  0  0  0  0  0
    7.6692    0.2063    0.0000 C   0  0  0  0  0  0  0  0  0  0  0  0
    8.3836   -0.2062    0.0000 C   0  0  0  0  0  0  0  0  0  0  0  0
    9.0981    0.2063    0.0000 O   0  0  0  0  0  0  0  0  0  0  0  0
    8.3836   -1.0312    0.0000 O   0  0  0  0  0  0  0  0  0  0  0  0
  1  2  2  0  0  0  0
  2  3  1  0  0  0  0
  3  4  2  0  0  0  0
  4  5  1  0  0  0  0
  5  6  2  0  0  0  0
  1  6  1  0  0  0  0
  6  7  1  0  0  0  0
  7  8  2  0  0  0  0
  8  9  1  0  0  0  0
  5  9  1  0  0  0  0
  7 10  1  0  0  0  0
 10 11  1  0  0  0  0
 11 12  1  0  0  0  0
 12 13  1  0  0  0  0
 12 14  1  0  0  0  0
  2 15  1  0  0  0  0
 15 16  1  0  0  0  0
 16 17  2  0  0  0  0
 16 18  2  0  0  0  0
 16 19  1  0  0  0  0
 19 20  1  0  0  0  0
 21 22  1  0  0  0  0
 22 23  2  0  0  0  0
 22 24  1  0  0  0  0
 21 25  1  0  0  0  0
 25 26  1  0  0  0  0
 26 27  2  0  0  0  0
 26 28  1  0  0  0  0
M  END
>  <Name>
Sumatriptan succinate

>  <CAS>
103628-48-4

>  <Formula>
C18H27N3O6S

>  <MolWt>
413.49 

>  <Bioactivity>
A serotonin agonist that acts selectively at 5HT1 receptors. It is used in the treatment of migraine disorders. 

>  <Pathways>
Neuroscience

>  <Target>
5-HT Receptor agonist

>  <Receptor>
5-HT Receptor

>  <Reference>
1. Peroutka SJ, et al. Eur J Pharmacol, 1989, 163(1), 133-136.

$$$$
T0208
  Mrv1561503291623562D          

 32 33  0  0  0  0            999 V2000
   -1.7013   -3.2415    0.0000 C   0  0  0  0  0  0  0  0  0  0  0  0
   -1.1695   -3.8722    0.0000 C   0  0  0  0  0  0  0  0  0  0  0  0
   -1.4498   -4.6481    0.0000 O   0  0  0  0  0  0  0  0  0  0  0  0
   -0.3574   -3.7270    0.0000 C   0  0  0  0  0  0  0  0  0  0  0  0
    0.4672   -3.7538    0.0000 C   0  0  0  0  0  0  0  0  0  0  0  0
    0.9990   -4.3845    0.0000 C   0  0  0  0  0  0  0  0  0  0  0  0
    1.8111   -4.2393    0.0000 C   0  0  0  0  0  0  0  0  0  0  0  0
    2.0914   -3.4634    0.0000 C   0  0  0  0  0  0  0  0  0  0  0  0
    2.9035   -3.3182    0.0000 C   0  0  0  0  0  0  0  0  0  0  0  0
    3.1838   -2.5422    0.0000 C   0  0  0  0  0  0  0  0  0  0  0  0
    3.9960   -2.3970    0.0000 C   0  0  0  0  0  0  0  0  0  0  0  0
    4.5278   -3.0277    0.0000 C   0  0  0  0  0  0  0  0  0  0  0  0
    5.3399   -2.8825    0.0000 O   0  0  0  0  0  0  0  0  0  0  0  0
    4.2475   -3.8037    0.0000 C   0  0  0  0  0  0  0  0  0  0  0  0
    3.4354   -3.9489    0.0000 C   0  0  0  0  0  0  0  0  0  0  0  0
    2.6520   -1.9115    0.0000 C   0  0  0  0  0  0  0  0  0  0  0  0
    1.8399   -2.0567    0.0000 C   0  0  0  0  0  0  0  0  0  0  0  0
    1.5596   -2.8327    0.0000 C   0  0  0  0  0  0  0  0  0  0  0  0
    0.7475   -2.9779    0.0000 C   0  0  0  0  0  0  0  0  0  0  0  0
    0.0962   -2.4715    0.0000 C   0  0  0  0  0  0  0  0  0  0  0  0
   -0.5867   -2.9345    0.0000 C   0  0  0  0  0  0  0  0  0  0  0  0
    2.6232   -4.0941    0.0000 C   0  0  0  0  0  0  0  0  0  0  0  0
    2.3429   -4.8700    0.0000 O   0  0  0  0  0  0  0  0  0  0  0  0
    0.1073   -4.4962    0.0000 C   0  0  0  0  0  0  0  0  0  0  0  0
   -0.2978   -4.5498    0.0000 O   0  0  0  0  0  0  0  0  0  0  0  0
   -1.4210   -2.4656    0.0000 O   0  0  0  0  0  0  0  0  0  0  0  0
   -1.9528   -1.8349    0.0000 P   0  0  0  0  0  0  0  0  0  0  0  0
   -1.3221   -1.3031    0.0000 O   0  0  0  0  0  0  0  0  0  0  0  0
   -2.4847   -1.2042    0.0000 O   0  5  0  0  0  0  0  0  0  0  0  0
   -2.5835   -2.3667    0.0000 O   0  5  0  0  0  0  0  0  0  0  0  0
   -3.0165   -0.5735    0.0000 Na  0  3  0  0  0  0  0  0  0  0  0  0
   -3.2142   -2.8985    0.0000 Na  0  3  0  0  0  0  0  0  0  0  0  0
  1  2  1  0  0  0  0
  2  3  2  0  0  0  0
  2  4  1  0  0  0  0
  4  5  1  0  0  0  0
  5  6  1  0  0  0  0
  6  7  1  0  0  0  0
  7  8  1  0  0  0  0
  8  9  1  0  0  0  0
  9 10  1  0  0  0  0
 10 11  2  0  0  0  0
 11 12  1  0  0  0  0
 12 13  2  0  0  0  0
 12 14  1  0  0  0  0
 14 15  2  0  0  0  0
  9 15  1  0  0  0  0
 10 16  1  0  0  0  0
 16 17  1  0  0  0  0
 17 18  1  0  0  0  0
  8 18  1  0  0  0  0
 18 19  1  0  0  0  0
  5 19  1  0  0  0  0
 19 20  1  0  0  0  0
 20 21  1  0  0  0  0
  4 21  1  0  0  0  0
  9 22  1  0  0  0  0
  7 23  1  0  0  0  0
  5 24  1  0  0  0  0
  4 25  1  0  0  0  0
  1 26  1  0  0  0  0
 26 27  1  0  0  0  0
 27 28  2  0  0  0  0
 27 29  1  0  0  0  0
 27 30  1  0  0  0  0
M  CHG  4  29  -1  30  -1  31   1  32   1
M  END
>  <Name>
Prednisolone phosphate sodium

>  <CAS>
125-02-0

>  <Formula>
C21H27Na2O8P

>  <MolWt>
484.39 

>  <Bioactivity>
Prednisolone Acetate is a synthetic corticosteroid drug that is particularly effective as an immunosuppressant agent.

>  <Pathways>
Endocrinology/ Hormones

>  <Target>
Glucocorticoid Receptor antagonist

>  <Receptor>
Glucocorticoid Receptor

>  <Reference>
1. Ikonomidis I, et al. Heart. 2009 Sep;95(18):1502-7.

$$$$
514-65-8
  Mrv1561503291623562D          

 23 26  0  0  0  0            999 V2000
   -0.7145    1.0164    0.0000 C   0  0  0  0  0  0  0  0  0  0  0  0
   -1.1270    0.3020    0.0000 C   0  0  0  0  0  0  0  0  0  0  0  0
   -0.7145   -0.4125    0.0000 C   0  0  0  0  0  0  0  0  0  0  0  0
   -0.3020   -1.1270    0.0000 O   0  0  0  0  0  0  0  0  0  0  0  0
    0.0000   -0.0000    0.0000 C   0  0  0  0  0  0  0  0  0  0  0  0
    0.7145   -0.4125    0.0000 C   0  0  0  0  0  0  0  0  0  0  0  0
    0.5082    0.4125    0.0000 C   0  0  0  0  0  0  0  0  0  0  0  0
    0.7145    1.2375    0.0000 C   0  0  0  0  0  0  0  0  0  0  0  0
   -0.0000    0.8250    0.0000 C   0  0  0  0  0  0  0  0  0  0  0  0
    1.4289    0.8250    0.0000 C   0  0  0  0  0  0  0  0  0  0  0  0
    1.4289    0.0000    0.0000 C   0  0  0  0  0  0  0  0  0  0  0  0
   -1.4289   -0.8250    0.0000 C   0  0  0  0  0  0  0  0  0  0  0  0
   -1.4289   -1.6500    0.0000 C   0  0  0  0  0  0  0  0  0  0  0  0
   -2.1434   -2.0625    0.0000 N   0  0  0  0  0  0  0  0  0  0  0  0
   -2.1434   -2.8875    0.0000 C   0  0  0  0  0  0  0  0  0  0  0  0
   -2.8579   -3.3000    0.0000 C   0  0  0  0  0  0  0  0  0  0  0  0
   -3.5724   -2.8875    0.0000 C   0  0  0  0  0  0  0  0  0  0  0  0
   -3.5724   -2.0625    0.0000 C   0  0  0  0  0  0  0  0  0  0  0  0
   -2.8579   -1.6500    0.0000 C   0  0  0  0  0  0  0  0  0  0  0  0
   -1.9520    0.3020    0.0000 C   0  0  0  0  0  0  0  0  0  0  0  0
   -2.3645    1.0164    0.0000 C   0  0  0  0  0  0  0  0  0  0  0  0
   -1.9520    1.7309    0.0000 C   0  0  0  0  0  0  0  0  0  0  0  0
   -1.1270    1.7309    0.0000 C   0  0  0  0  0  0  0  0  0  0  0  0
  1  2  2  0  0  0  0
  2  3  1  0  0  0  0
  3  4  1  0  0  0  0
  3  5  1  0  0  0  0
  5  6  1  0  0  0  0
  6  7  1  0  0  0  0
  7  8  1  0  0  0  0
  8  9  1  0  0  0  0
  5  9  1  0  0  0  0
  8 10  1  0  0  0  0
 10 11  2  0  0  0  0
  6 11  1  0  0  0  0
  3 12  1  0  0  0  0
 12 13  1  0  0  0  0
 13 14  1  0  0  0  0
 14 15  1  0  0  0  0
 15 16  1  0  0  0  0
 16 17  1  0  0  0  0
 17 18  1  0  0  0  0
 18 19  1  0  0  0  0
 14 19  1  0  0  0  0
  2 20  1  0  0  0  0
 20 21  2  0  0  0  0
 21 22  1  0  0  0  0
 22 23  2  0  0  0  0
  1 23  1  0  0  0  0
M  END
>  <Name>
Bipariden

>  <CAS>
514-65-8

>  <Formula>
C21H29NO

>  <MolWt>
311.46 

>  <Bioactivity>
A muscarinic antagonist that has effects in both the central and peripheral nervous systems. It has been used in the treatment of arteriosclerotic, idiopathic, and postencephalitic parkinsonism. It has also been used to alleviate extrapyramidal symptoms induced by phenothiazine derivatives and reserpine. 

>  <Pathways>
Neuroscience

>  <Target>
AChR antagonist

>  <Receptor>
Muscarinic AChR

>  <Reference>
1. Hosoi R, et al. J Neural Transm. 1999;106(7-8):583-92. 

$$$$
5875-06-9
  Mrv1561503291623562D          

 22 21  0  0  0  0            999 V2000
   -0.7268   -0.9186    0.0000 C   0  0  0  0  0  0  0  0  0  0  0  0
   -1.5518   -0.9186    0.0000 C   0  0  0  0  0  0  0  0  0  0  0  0
   -1.9643   -0.2041    0.0000 C   0  0  0  0  0  0  0  0  0  0  0  0
   -1.5518    0.5103    0.0000 C   0  0  0  0  0  0  0  0  0  0  0  0
   -0.7268    0.5103    0.0000 C   0  0  0  0  0  0  0  0  0  0  0  0
   -0.3143   -0.2041    0.0000 C   0  0  0  0  0  0  0  0  0  0  0  0
    0.5107   -0.2041    0.0000 C   0  0  0  0  0  0  0  0  0  0  0  0
    0.9232    0.5103    0.0000 O   0  0  0  0  0  0  0  0  0  0  0  0
    1.7482    0.5103    0.0000 C   0  0  0  0  0  0  0  0  0  0  0  0
    2.1607    1.2248    0.0000 C   0  0  0  0  0  0  0  0  0  0  0  0
    2.9857    1.2248    0.0000 N   0  3  0  0  0  0  0  0  0  0  0  0
    3.3982    1.9393    0.0000 C   0  0  0  0  0  0  0  0  0  0  0  0
    4.2232    1.9393    0.0000 C   0  0  0  0  0  0  0  0  0  0  0  0
    3.3982    0.5103    0.0000 C   0  0  0  0  0  0  0  0  0  0  0  0
    2.9857   -0.2041    0.0000 C   0  0  0  0  0  0  0  0  0  0  0  0
    0.9232   -0.9186    0.0000 O   0  0  0  0  0  0  0  0  0  0  0  0
   -2.7893   -0.2041    0.0000 O   0  0  0  0  0  0  0  0  0  0  0  0
   -3.2018   -0.9186    0.0000 C   0  0  0  0  0  0  0  0  0  0  0  0
   -4.0268   -0.9186    0.0000 C   0  0  0  0  0  0  0  0  0  0  0  0
   -4.4393   -1.6331    0.0000 C   0  0  0  0  0  0  0  0  0  0  0  0
   -1.9643   -1.6331    0.0000 N   0  0  0  0  0  0  0  0  0  0  0  0
    6.5804    0.0000    0.0000 Cl  0  5  0  0  0  0  0  0  0  0  0  0
  1  2  2  0  0  0  0
  2  3  1  0  0  0  0
  3  4  2  0  0  0  0
  4  5  1  0  0  0  0
  5  6  2  0  0  0  0
  1  6  1  0  0  0  0
  6  7  1  0  0  0  0
  7  8  1  0  0  0  0
  8  9  1  0  0  0  0
  9 10  1  0  0  0  0
 10 11  1  0  0  0  0
 11 12  1  0  0  0  0
 12 13  1  0  0  0  0
 11 14  1  0  0  0  0
 14 15  1  0  0  0  0
  7 16  2  0  0  0  0
  3 17  1  0  0  0  0
 17 18  1  0  0  0  0
 18 19  1  0  0  0  0
 19 20  1  0  0  0  0
  2 21  1  0  0  0  0
M  CHG  2  11   1  22  -1
M  END
>  <Name>
Proparacaine HCl

>  <CAS>
5875-06-9

>  <Formula>
C16H26N2O3.HCl

>  <MolWt>
330.86 

>  <Bioactivity>
Proparacaine HCl is a voltage-gated sodium channels antagonist 

>  <Pathways>
Membrane Transporter/Ion Channel

>  <Target>
Sodium Channel inhibitor

>  <Receptor>
Sodium Channel

>  <Reference>
1. Grant RL, et al. Exp Eye Res, 1994, 58(4), 469-478.

$$$$
T0224
  Mrv1561503291623562D          

 26 28  0  0  1  0            999 V2000
    0.6773   -0.9323    0.0000 C   0  0  1  0  0  0  0  0  0  0  0  0
    0.6773   -0.1073    0.0000 N   0  0  0  0  0  0  0  0  0  0  0  0
   -0.1477   -0.1073    0.0000 C   0  0  0  0  0  0  0  0  0  0  0  0
   -0.7310    0.4761    0.0000 O   0  0  0  0  0  0  0  0  0  0  0  0
   -0.1477   -0.9323    0.0000 C   0  0  2  0  0  0  0  0  0  0  0  0
   -0.7310   -1.5156    0.0000 C   0  0  2  0  0  0  0  0  0  0  0  0
   -1.5279   -1.3021    0.0000 O   0  0  0  0  0  0  0  0  0  0  0  0
   -0.5175   -2.3125    0.0000 C   0  0  0  0  0  0  0  0  0  0  0  0
    1.4620    0.1477    0.0000 C   0  0  0  0  0  0  0  0  0  0  0  0
    1.9469   -0.5198    0.0000 C   0  0  0  0  0  0  0  0  0  0  0  0
    2.7719   -0.5198    0.0000 S   0  0  0  0  0  0  0  0  0  0  0  0
    3.1844   -1.2343    0.0000 C   0  0  2  0  0  0  0  0  0  0  0  0
    4.0049   -1.3205    0.0000 N   0  0  0  0  0  0  0  0  0  0  0  0
    4.1764   -2.1275    0.0000 C   0  0  1  0  0  0  0  0  0  0  0  0
    3.4619   -2.5400    0.0000 C   0  0  0  0  0  0  0  0  0  0  0  0
    2.8488   -1.9879    0.0000 C   0  0  0  0  0  0  0  0  0  0  0  0
    4.9301   -2.4630    0.0000 C   0  0  0  0  0  0  0  0  0  0  0  0
    5.5975   -1.9781    0.0000 O   0  0  0  0  0  0  0  0  0  0  0  0
    5.0163   -3.2835    0.0000 N   0  0  0  0  0  0  0  0  0  0  0  0
    5.7700   -3.6191    0.0000 C   0  0  0  0  0  0  0  0  0  0  0  0
    4.3489   -3.7684    0.0000 C   0  0  0  0  0  0  0  0  0  0  0  0
    1.4620   -1.1872    0.0000 C   0  0  2  0  0  0  0  0  0  0  0  0
    1.7169   -1.9718    0.0000 C   0  0  0  0  0  0  0  0  0  0  0  0
    1.7169    0.9323    0.0000 C   0  0  0  0  0  0  0  0  0  0  0  0
    2.5239    1.1038    0.0000 O   0  0  0  0  0  0  0  0  0  0  0  0
    1.1649    1.5454    0.0000 O   0  0  0  0  0  0  0  0  0  0  0  0
  1  2  1  6  0  0  0
  2  3  1  0  0  0  0
  3  4  2  0  0  0  0
  3  5  1  0  0  0  0
  1  5  1  0  0  0  0
  5  6  1  1  0  0  0
  6  7  1  1  0  0  0
  6  8  1  0  0  0  0
  2  9  1  0  0  0  0
  9 10  2  0  0  0  0
 10 11  1  0  0  0  0
 12 11  1  6  0  0  0
 12 13  1  0  0  0  0
 13 14  1  0  0  0  0
 14 15  1  0  0  0  0
 15 16  1  0  0  0  0
 12 16  1  0  0  0  0
 14 17  1  6  0  0  0
 17 18  2  0  0  0  0
 17 19  1  0  0  0  0
 19 20  1  0  0  0  0
 19 21  1  0  0  0  0
 10 22  1  0  0  0  0
  1 22  1  0  0  0  0
 22 23  1  6  0  0  0
  9 24  1  0  0  0  0
 24 25  2  0  0  0  0
 24 26  1  0  0  0  0
M  END
>  <Name>
Meropenem

>  <CAS>
96036-03-2

>  <Formula>
C17H25N3O5S

>  <MolWt>
383.46 

>  <Bioactivity>
Meropenem is a broad-spectrum carbapenem antibiotic. It is active against Gram-positive and Gram-negative bacteria. Meropenem exerts its action by penetrating bacterial cells readily and interfering with the synthesis of vital cell wall components, which leads to cell death.  

>  <Pathways>
Microbiology & Virology

>  <Target>
Antibiotic

>  <Receptor>
?-Lactamase,  D-alanyl-D-alanine carboxypeptidase DacB

>  <Reference>
1. Kanazawa K, et al. J Antibiot (Tokyo). 1997 Feb;50(2):162-8. 

$$$$
150322-43-3
  Mrv1561503291623562D          

 26 29  0  0  0  0            999 V2000
   -2.6909    0.0165    0.0000 C   0  0  0  0  0  0  0  0  0  0  0  0
   -1.8659    0.0165    0.0000 C   0  0  0  0  0  0  0  0  0  0  0  0
   -1.4534    0.7310    0.0000 O   0  0  0  0  0  0  0  0  0  0  0  0
   -1.4534   -0.6979    0.0000 O   0  0  0  0  0  0  0  0  0  0  0  0
   -0.6284   -0.6979    0.0000 C   0  0  0  0  0  0  0  0  0  0  0  0
   -0.1435   -1.3654    0.0000 C   0  0  0  0  0  0  0  0  0  0  0  0
    0.6411   -1.1104    0.0000 C   0  0  0  0  0  0  0  0  0  0  0  0
    0.6411   -0.2854    0.0000 C   0  0  0  0  0  0  0  0  0  0  0  0
   -0.1435   -0.0305    0.0000 S   0  0  0  0  0  0  0  0  0  0  0  0
    1.3556    0.1271    0.0000 C   0  0  0  0  0  0  0  0  0  0  0  0
    2.0701   -0.2854    0.0000 C   0  0  0  0  0  0  0  0  0  0  0  0
    2.0701   -1.1104    0.0000 N   0  0  0  0  0  0  0  0  0  0  0  0
    1.3556   -1.5229    0.0000 C   0  0  0  0  0  0  0  0  0  0  0  0
    2.7845   -1.5229    0.0000 C   0  0  0  0  0  0  0  0  0  0  0  0
    2.7845   -2.3479    0.0000 C   0  0  0  0  0  0  0  0  0  0  0  0
    3.4990   -2.7604    0.0000 C   0  0  0  0  0  0  0  0  0  0  0  0
    3.4990   -3.5854    0.0000 C   0  0  0  0  0  0  0  0  0  0  0  0
    2.7845   -3.9979    0.0000 C   0  0  0  0  0  0  0  0  0  0  0  0
    2.0701   -3.5854    0.0000 C   0  0  0  0  0  0  0  0  0  0  0  0
    2.0701   -2.7604    0.0000 C   0  0  0  0  0  0  0  0  0  0  0  0
    1.3556   -2.3479    0.0000 F   0  0  0  0  0  0  0  0  0  0  0  0
    3.4990   -1.1104    0.0000 C   0  0  0  0  0  0  0  0  0  0  0  0
    4.2135   -1.5229    0.0000 O   0  0  0  0  0  0  0  0  0  0  0  0
    3.4990   -0.2854    0.0000 C   0  0  0  0  0  0  0  0  0  0  0  0
    3.0865    0.4290    0.0000 C   0  0  0  0  0  0  0  0  0  0  0  0
    3.9115    0.4290    0.0000 C   0  0  0  0  0  0  0  0  0  0  0  0
  1  2  1  0  0  0  0
  2  3  2  0  0  0  0
  2  4  1  0  0  0  0
  4  5  1  0  0  0  0
  5  6  2  0  0  0  0
  6  7  1  0  0  0  0
  7  8  2  0  0  0  0
  8  9  1  0  0  0  0
  5  9  1  0  0  0  0
  8 10  1  0  0  0  0
 10 11  1  0  0  0  0
 11 12  1  0  0  0  0
 12 13  1  0  0  0  0
  7 13  1  0  0  0  0
 12 14  1  0  0  0  0
 14 15  1  0  0  0  0
 15 16  2  0  0  0  0
 16 17  1  0  0  0  0
 17 18  2  0  0  0  0
 18 19  1  0  0  0  0
 19 20  2  0  0  0  0
 15 20  1  0  0  0  0
 20 21  1  0  0  0  0
 14 22  1  0  0  0  0
 22 23  2  0  0  0  0
 22 24  1  0  0  0  0
 24 25  1  0  0  0  0
 25 26  1  0  0  0  0
 24 26  1  0  0  0  0
M  END
>  <Name>
Prasugrel

>  <CAS>
150322-43-3

>  <Formula>
C20H20FNO3S

>  <MolWt>
373.44 

>  <Bioactivity>
Prasugrel, a thienopyridine derivative, is a platelet activation and aggregation inhibitor structurally and pharmacologically related to clopidogrel and ticlopidine. Similar to clopidogrel, prasugrel is a prodrug that requires enzymatic transformation in the liver to its active metabolite, R-138727. R-138727 irreversibly binds to P2Y12 type ADP receptors on platelets thus preventing activation of the GPIIb/IIIa receptor complex. As a result, inhibition of ADP-mediated platelet activation and aggregation occurs. Prasugrel was developed by Daiichi Sankyo Co. and is currently marketed in the United States and Canada in cooperation with Eli Lilly and Company for acute coronary syndromes planned for percutaneous coronary intervention (PCI). FDA approved in 2009. 

>  <Pathways>
Neuroscience

>  <Target>
P2 Receptor antagonist

>  <Receptor>
Cocaine esterase; P2Y Receptor

>  <Reference>
1. Dovlatova NL, et al. J Thromb Haemost. 2008 Jul;6(7):1153-9.

$$$$
115007-34-6
  Mrv1561503291623562D          

 31 33  0  0  0  0            999 V2000
    0.7145   -1.2375    0.0000 C   0  0  0  0  0  0  0  0  0  0  0  0
    0.7145   -0.4125    0.0000 C   0  0  0  0  0  0  0  0  0  0  0  0
    0.0000    0.0000    0.0000 C   0  0  0  0  0  0  0  0  0  0  0  0
    0.0000    0.8250    0.0000 C   0  0  0  0  0  0  0  0  0  0  0  0
    0.7145    1.2375    0.0000 C   0  0  0  0  0  0  0  0  0  0  0  0
    1.4289    0.8250    0.0000 C   0  0  0  0  0  0  0  0  0  0  0  0
    1.4289    0.0000    0.0000 C   0  0  0  0  0  0  0  0  0  0  0  0
    2.1434   -0.4125    0.0000 O   0  0  0  0  0  0  0  0  0  0  0  0
    2.1434   -1.2375    0.0000 C   0  0  0  0  0  0  0  0  0  0  0  0
    2.1434    1.2375    0.0000 C   0  0  0  0  0  0  0  0  0  0  0  0
    0.5429    2.0445    0.0000 C   0  0  0  0  0  0  0  0  0  0  0  0
   -0.2775    2.1307    0.0000 O   0  0  0  0  0  0  0  0  0  0  0  0
   -0.6131    1.3770    0.0000 C   0  0  0  0  0  0  0  0  0  0  0  0
   -1.4201    1.2055    0.0000 O   0  0  0  0  0  0  0  0  0  0  0  0
   -0.7145   -0.4125    0.0000 O   0  0  0  0  0  0  0  0  0  0  0  0
    1.4289   -1.6500    0.0000 C   0  0  0  0  0  0  0  0  0  0  0  0
    1.4289   -2.4750    0.0000 C   0  0  0  0  0  0  0  0  0  0  0  0
    2.1434   -2.8875    0.0000 C   0  0  0  0  0  0  0  0  0  0  0  0
    2.8579   -2.4750    0.0000 C   0  0  0  0  0  0  0  0  0  0  0  0
    3.5724   -2.8875    0.0000 C   0  0  0  0  0  0  0  0  0  0  0  0
    4.2868   -2.4750    0.0000 O   0  0  0  0  0  0  0  0  0  0  0  0
    5.0013   -2.8875    0.0000 C   0  0  0  0  0  0  0  0  0  0  0  0
    5.7158   -2.4750    0.0000 C   0  0  0  0  0  0  0  0  0  0  0  0
    6.4302   -2.8875    0.0000 N   0  0  0  0  0  0  0  0  0  0  0  0
    7.1447   -2.4750    0.0000 C   0  0  0  0  0  0  0  0  0  0  0  0
    7.8592   -2.8875    0.0000 C   0  0  0  0  0  0  0  0  0  0  0  0
    7.8592   -3.7125    0.0000 O   0  0  0  0  0  0  0  0  0  0  0  0
    7.1447   -4.1250    0.0000 C   0  0  0  0  0  0  0  0  0  0  0  0
    6.4302   -3.7125    0.0000 C   0  0  0  0  0  0  0  0  0  0  0  0
    3.5724   -3.7125    0.0000 O   0  0  0  0  0  0  0  0  0  0  0  0
    0.7145   -2.8875    0.0000 C   0  0  0  0  0  0  0  0  0  0  0  0
  1  2  1  0  0  0  0
  2  3  2  0  0  0  0
  3  4  1  0  0  0  0
  4  5  2  0  0  0  0
  5  6  1  0  0  0  0
  6  7  2  0  0  0  0
  2  7  1  0  0  0  0
  7  8  1  0  0  0  0
  8  9  1  0  0  0  0
  6 10  1  0  0  0  0
  5 11  1  0  0  0  0
 11 12  1  0  0  0  0
 12 13  1  0  0  0  0
  4 13  1  0  0  0  0
 13 14  2  0  0  0  0
  3 15  1  0  0  0  0
  1 16  1  0  0  0  0
 16 17  2  0  0  0  0
 17 18  1  0  0  0  0
 18 19  1  0  0  0  0
 19 20  1  0  0  0  0
 20 21  1  0  0  0  0
 21 22  1  0  0  0  0
 22 23  1  0  0  0  0
 23 24  1  0  0  0  0
 24 25  1  0  0  0  0
 25 26  1  0  0  0  0
 26 27  1  0  0  0  0
 27 28  1  0  0  0  0
 28 29  1  0  0  0  0
 24 29  1  0  0  0  0
 20 30  2  0  0  0  0
 17 31  1  0  0  0  0
M  END
>  <Name>
Mycophenolate mofetil

>  <CAS>
115007-34-6

>  <Formula>
C23H31NO7

>  <MolWt>
433.50 

>  <Bioactivity>
Mycophenolate mofetil is the 2-morpholinoethyl ester of mycophenolic acid (MPA), an immunosuppressive agent, inosine monophosphate dehydrogenase (IMPDH) inhibitor. 

>  <Pathways>
Metabolism

>  <Target>
Dehydrogenase inhibitor

>  <Receptor>
IMPDH

>  <Reference>
1. Nakanishi T, et al. Int Immunopharmacol. 2010, 10(1), 91-97.

$$$$
17321-77-6
  Mrv1561503291623562D          

 24 24  0  0  0  0            999 V2000
    0.4125    0.0000    0.0000 H   0  3  0  0  0  0  0  0  0  0  0  0
    4.0430    1.3766    0.0000 C   0  0  0  0  0  0  0  0  0  0  0  0
    3.4382    1.9378    0.0000 C   0  0  0  0  0  0  0  0  0  0  0  0
    3.6218    2.7421    0.0000 Cl  0  0  0  0  0  0  0  0  0  0  0  0
    2.6499    1.6946    0.0000 C   0  0  0  0  0  0  0  0  0  0  0  0
    2.4663    0.8903    0.0000 C   0  0  0  0  0  0  0  0  0  0  0  0
    3.0710    0.3292    0.0000 C   0  0  0  0  0  0  0  0  0  0  0  0
    3.8594    0.5723    0.0000 C   0  0  0  0  0  0  0  0  0  0  0  0
    4.5410    0.1076    0.0000 N   0  0  0  0  0  0  0  0  0  0  0  0
    4.6027   -0.7151    0.0000 C   0  0  0  0  0  0  0  0  0  0  0  0
    3.9979   -1.2762    0.0000 C   0  0  0  0  0  0  0  0  0  0  0  0
    3.1821   -1.1533    0.0000 C   0  0  0  0  0  0  0  0  0  0  0  0
    2.7696   -0.4388    0.0000 C   0  0  0  0  0  0  0  0  0  0  0  0
    4.1815   -2.0806    0.0000 C   0  0  0  0  0  0  0  0  0  0  0  0
    4.9699   -2.3237    0.0000 C   0  0  0  0  0  0  0  0  0  0  0  0
    5.5746   -1.7626    0.0000 C   0  0  0  0  0  0  0  0  0  0  0  0
    5.3910   -0.9583    0.0000 C   0  0  0  0  0  0  0  0  0  0  0  0
    5.2555    0.5201    0.0000 C   0  0  0  0  0  0  0  0  0  0  0  0
    5.9700    0.1076    0.0000 C   0  0  0  0  0  0  0  0  0  0  0  0
    6.6845    0.5201    0.0000 C   0  0  0  0  0  0  0  0  0  0  0  0
    7.3989    0.1076    0.0000 N   0  0  0  0  0  0  0  0  0  0  0  0
    8.1134    0.5201    0.0000 C   0  0  0  0  0  0  0  0  0  0  0  0
    7.3989   -0.7174    0.0000 C   0  0  0  0  0  0  0  0  0  0  0  0
   -0.4125    0.0000    0.0000 Cl  0  5  0  0  0  0  0  0  0  0  0  0
  2  3  2  0  0  0  0
  3  4  1  0  0  0  0
  3  5  1  0  0  0  0
  5  6  2  0  0  0  0
  6  7  1  0  0  0  0
  7  8  2  0  0  0  0
  2  8  1  0  0  0  0
  8  9  1  0  0  0  0
  9 10  1  0  0  0  0
 10 11  2  0  0  0  0
 11 12  1  0  0  0  0
 12 13  1  0  0  0  0
  7 13  1  0  0  0  0
 11 14  1  0  0  0  0
 14 15  2  0  0  0  0
 15 16  1  0  0  0  0
 16 17  2  0  0  0  0
 10 17  1  0  0  0  0
  9 18  1  0  0  0  0
 18 19  1  0  0  0  0
 19 20  1  0  0  0  0
 20 21  1  0  0  0  0
 21 22  1  0  0  0  0
 21 23  1  0  0  0  0
M  CHG  2   1   1  24  -1
M  END
>  <Name>
Clomipramine HCl

>  <CAS>
17321-77-6

>  <Formula>
C19H23ClN2.HCl

>  <MolWt>
351.31 

>  <Bioactivity>
Gemcitabine is a nucleoside analog used as chemotherapy. It is marketed as Gemzar? by Eli Lilly and Company. As with fluorouracil and other analogues of pyrimidines, the drug replaces one of the building blocks of nucleic acids, in this case cytidine, during DNA replication. The process arrests tumor growth, as new nucleosides cannot be attached to the "faulty" nucleoside, resulting in apoptosis (cellular "suicide"). Gemcitabine is used in various carcinomas: non-small cell lung cancer, pancreatic cancer, bladder cancer and breast cancer. It is being investigated for use in oesophageal cancer, and is used experimentally in lymphomas and various other tumor types.  

>  <Pathways>
Neuroscience

>  <Target>
5-HT Receptor antagonist

>  <Receptor>
5-HT Receptor;GSTP;Sodium-dependent noradrenaline transporter;Sodium-dependent serotonin transporter

>  <Reference>
1. Hastak K, et al. Cancer Res. 2010 Aug 26. 

$$$$
523-87-5
  Mrv1561503291623562D          

 33 35  0  0  0  0            999 V2000
    0.3524   -1.6500    0.0000 C   0  0  0  0  0  0  0  0  0  0  0  0
    0.3524   -0.8250    0.0000 N   0  0  0  0  0  0  0  0  0  0  0  0
   -0.3621   -0.4125    0.0000 C   0  0  0  0  0  0  0  0  0  0  0  0
   -0.3621    0.4125    0.0000 C   0  0  0  0  0  0  0  0  0  0  0  0
    0.3524    0.8250    0.0000 C   0  0  0  0  0  0  0  0  0  0  0  0
    1.0669    0.4125    0.0000 N   0  0  0  0  0  0  0  0  0  0  0  0
    1.7813    0.8250    0.0000 C   0  0  0  0  0  0  0  0  0  0  0  0
    1.0669   -0.4125    0.0000 C   0  0  0  0  0  0  0  0  0  0  0  0
    1.7813   -0.8250    0.0000 O   0  0  0  0  0  0  0  0  0  0  0  0
    0.3524    1.6500    0.0000 O   0  0  0  0  0  0  0  0  0  0  0  0
   -1.1467    0.6674    0.0000 N   0  0  0  0  0  0  0  0  0  0  0  0
   -1.6316    0.0000    0.0000 C   0  0  0  0  0  0  0  0  0  0  0  0
   -1.1467   -0.6674    0.0000 N   0  0  0  0  0  0  0  0  0  0  0  0
   -2.4566    0.0000    0.0000 Cl  0  0  0  0  0  0  0  0  0  0  0  0
    4.3815    0.2388    0.0000 C   0  0  0  0  0  0  0  0  0  0  0  0
    3.6670    0.6513    0.0000 C   0  0  0  0  0  0  0  0  0  0  0  0
    3.6670    1.4763    0.0000 C   0  0  0  0  0  0  0  0  0  0  0  0
    4.3815    1.8888    0.0000 C   0  0  0  0  0  0  0  0  0  0  0  0
    5.0960    1.4763    0.0000 C   0  0  0  0  0  0  0  0  0  0  0  0
    5.0960    0.6513    0.0000 C   0  0  0  0  0  0  0  0  0  0  0  0
    5.8104    0.2388    0.0000 C   0  0  0  0  0  0  0  0  0  0  0  0
    5.8104   -0.5862    0.0000 C   0  0  0  0  0  0  0  0  0  0  0  0
    6.5249   -0.9987    0.0000 C   0  0  0  0  0  0  0  0  0  0  0  0
    6.5249   -1.8237    0.0000 C   0  0  0  0  0  0  0  0  0  0  0  0
    5.8104   -2.2362    0.0000 C   0  0  0  0  0  0  0  0  0  0  0  0
    5.0960   -1.8237    0.0000 C   0  0  0  0  0  0  0  0  0  0  0  0
    5.0960   -0.9987    0.0000 C   0  0  0  0  0  0  0  0  0  0  0  0
    6.5249    0.6513    0.0000 O   0  0  0  0  0  0  0  0  0  0  0  0
    7.2394    0.2388    0.0000 C   0  0  0  0  0  0  0  0  0  0  0  0
    7.9539    0.6513    0.0000 C   0  0  0  0  0  0  0  0  0  0  0  0
    8.6683    0.2388    0.0000 N   0  0  0  0  0  0  0  0  0  0  0  0
    9.3828    0.6513    0.0000 C   0  0  0  0  0  0  0  0  0  0  0  0
    8.6683   -0.5862    0.0000 C   0  0  0  0  0  0  0  0  0  0  0  0
  1  2  1  0  0  0  0
  2  3  1  0  0  0  0
  3  4  2  0  0  0  0
  4  5  1  0  0  0  0
  5  6  1  0  0  0  0
  6  7  1  0  0  0  0
  6  8  1  0  0  0  0
  2  8  1  0  0  0  0
  8  9  2  0  0  0  0
  5 10  2  0  0  0  0
  4 11  1  0  0  0  0
 11 12  1  0  0  0  0
 12 13  2  0  0  0  0
  3 13  1  0  0  0  0
 12 14  1  0  0  0  0
 15 16  2  0  0  0  0
 16 17  1  0  0  0  0
 17 18  2  0  0  0  0
 18 19  1  0  0  0  0
 19 20  2  0  0  0  0
 15 20  1  0  0  0  0
 20 21  1  0  0  0  0
 21 22  1  0  0  0  0
 22 23  2  0  0  0  0
 23 24  1  0  0  0  0
 24 25  2  0  0  0  0
 25 26  1  0  0  0  0
 26 27  2  0  0  0  0
 22 27  1  0  0  0  0
 21 28  1  0  0  0  0
 28 29  1  0  0  0  0
 29 30  1  0  0  0  0
 30 31  1  0  0  0  0
 31 32  1  0  0  0  0
 31 33  1  0  0  0  0
M  END
>  <Name>
Dimenhydrinate

>  <CAS>
523-87-5

>  <Formula>
C24H28ClN5O3

>  <MolWt>
469.96 

>  <Bioactivity>
A drug combination that contains DIPHENHYDRAMINE and THEOPHYLLINE. It is used for treating vertigo, motion sickness, and nausea associated with pregnancy. It is not effective in the treatment of nausea associated with cancer chemotherapy. 

>  <Pathways>
Neuroscience

>  <Target>
Histamine Receptor antagonist

>  <Receptor>
Histamine H1 receptor

>  <Reference>
1. Chen X, et al. Nucleic Acids Res. 2002, 30(1):412-5. 

$$$$
81025-04-9
  Mrv1561503291623562D          

 24 23  0  0  0  0            999 V2000
   -2.0446   -0.6834    0.0000 C   0  0  0  0  0  0  0  0  0  0  0  0
   -1.6321    0.0311    0.0000 C   0  0  0  0  0  0  0  0  0  0  0  0
   -2.0446    0.7455    0.0000 C   0  0  0  0  0  0  0  0  0  0  0  0
   -1.6321    1.4600    0.0000 C   0  0  0  0  0  0  0  0  0  0  0  0
   -0.8071    1.4600    0.0000 C   0  0  0  0  0  0  0  0  0  0  0  0
   -0.3946    0.7455    0.0000 C   0  0  0  0  0  0  0  0  0  0  0  0
   -0.8071    0.0311    0.0000 O   0  0  0  0  0  0  0  0  0  0  0  0
    0.4304    0.7455    0.0000 O   0  0  0  0  0  0  0  0  0  0  0  0
    0.8429    0.0311    0.0000 C   0  0  0  0  0  0  0  0  0  0  0  0
    0.4304   -0.6834    0.0000 C   0  0  0  0  0  0  0  0  0  0  0  0
    0.8429   -1.3979    0.0000 C   0  0  0  0  0  0  0  0  0  0  0  0
    0.4304   -2.1123    0.0000 O   0  0  0  0  0  0  0  0  0  0  0  0
   -0.3946   -0.6834    0.0000 O   0  0  0  0  0  0  0  0  0  0  0  0
    1.6679    0.0311    0.0000 C   0  0  0  0  0  0  0  0  0  0  0  0
    2.0804   -0.6834    0.0000 C   0  0  0  0  0  0  0  0  0  0  0  0
    2.9054   -0.6834    0.0000 C   0  0  0  0  0  0  0  0  0  0  0  0
    3.3179   -1.3979    0.0000 O   0  0  0  0  0  0  0  0  0  0  0  0
    1.6679   -1.3979    0.0000 O   0  0  0  0  0  0  0  0  0  0  0  0
    2.0804    0.7455    0.0000 O   0  0  0  0  0  0  0  0  0  0  0  0
   -0.3946    2.1745    0.0000 O   0  0  0  0  0  0  0  0  0  0  0  0
   -2.0446    2.1745    0.0000 O   0  0  0  0  0  0  0  0  0  0  0  0
   -2.8696    0.7455    0.0000 O   0  0  0  0  0  0  0  0  0  0  0  0
   -1.6321   -1.3979    0.0000 O   0  0  0  0  0  0  0  0  0  0  0  0
    5.6751    0.0000    0.0000 O   0  0  0  0  0  0  0  0  0  0  0  0
  1  2  1  0  0  0  0
  2  3  1  0  0  0  0
  3  4  1  0  0  0  0
  4  5  1  0  0  0  0
  5  6  1  0  0  0  0
  6  7  1  0  0  0  0
  2  7  1  0  0  0  0
  6  8  1  0  0  0  0
  8  9  1  0  0  0  0
  9 10  1  0  0  0  0
 10 11  1  0  0  0  0
 11 12  1  0  0  0  0
 10 13  1  0  0  0  0
  9 14  1  0  0  0  0
 14 15  1  0  0  0  0
 15 16  1  0  0  0  0
 16 17  1  0  0  0  0
 15 18  1  0  0  0  0
 14 19  1  0  0  0  0
  5 20  1  0  0  0  0
  4 21  1  0  0  0  0
  3 22  1  0  0  0  0
  1 23  1  0  0  0  0
M  END
>  <Name>
Lactitol monohydrate

>  <CAS>
81025-04-9

>  <Formula>
C12H24O11.H2O

>  <MolWt>
362.33 

>  <Bioactivity>
It is an organic compound with fomulaa C12H26O12, used as cathartics, sweetening agents. 

>  <Pathways>
Others

>  <Target>
Others

>  <Receptor>
Others

>  <Reference>
1. Kanters JA, et al. Acta Crystallogr C. 1990 Dec 15;46 ( Pt 12):2408-11.

$$$$
35543-24-9
  Mrv1561503291623562D          

 23 23  0  0  0  0            999 V2000
   -1.5995    1.3360    0.0000 C   0  0  0  0  0  0  0  0  0  0  0  0
   -0.8851    0.9235    0.0000 C   0  0  0  0  0  0  0  0  0  0  0  0
   -0.8851    0.0985    0.0000 C   0  0  0  0  0  0  0  0  0  0  0  0
   -1.5995   -0.3140    0.0000 C   0  0  0  0  0  0  0  0  0  0  0  0
   -2.3140    0.0985    0.0000 C   0  0  0  0  0  0  0  0  0  0  0  0
   -2.3140    0.9235    0.0000 C   0  0  0  0  0  0  0  0  0  0  0  0
   -3.0285    1.3360    0.0000 O   0  0  0  0  0  0  0  0  0  0  0  0
   -3.7430    0.9235    0.0000 C   0  0  0  0  0  0  0  0  0  0  0  0
   -1.5995   -1.1390    0.0000 O   0  0  0  0  0  0  0  0  0  0  0  0
   -2.3140   -1.5515    0.0000 C   0  0  0  0  0  0  0  0  0  0  0  0
   -0.1706   -0.3140    0.0000 C   0  0  0  0  0  0  0  0  0  0  0  0
    0.5439    0.0985    0.0000 C   0  0  0  0  0  0  0  0  0  0  0  0
    1.2583   -0.3140    0.0000 C   0  0  0  0  0  0  0  0  0  0  0  0
    1.9728    0.0985    0.0000 C   0  0  0  0  0  0  0  0  0  0  0  0
    2.6873   -0.3140    0.0000 N   0  3  0  0  0  0  0  0  0  0  0  0
    3.4410    0.0216    0.0000 C   0  0  0  0  0  0  0  0  0  0  0  0
    3.9930   -0.5915    0.0000 C   0  0  0  0  0  0  0  0  0  0  0  0
    3.5805   -1.3060    0.0000 C   0  0  0  0  0  0  0  0  0  0  0  0
    2.7735   -1.1345    0.0000 C   0  0  0  0  0  0  0  0  0  0  0  0
   -0.1706   -1.1390    0.0000 O   0  0  0  0  0  0  0  0  0  0  0  0
   -0.1706    1.3360    0.0000 O   0  0  0  0  0  0  0  0  0  0  0  0
    0.5439    0.9235    0.0000 C   0  0  0  0  0  0  0  0  0  0  0  0
    6.3501    0.0000    0.0000 Cl  0  5  0  0  0  0  0  0  0  0  0  0
  1  2  2  0  0  0  0
  2  3  1  0  0  0  0
  3  4  2  0  0  0  0
  4  5  1  0  0  0  0
  5  6  2  0  0  0  0
  1  6  1  0  0  0  0
  6  7  1  0  0  0  0
  7  8  1  0  0  0  0
  4  9  1  0  0  0  0
  9 10  1  0  0  0  0
  3 11  1  0  0  0  0
 11 12  1  0  0  0  0
 12 13  1  0  0  0  0
 13 14  1  0  0  0  0
 14 15  1  0  0  0  0
 15 16  1  0  0  0  0
 16 17  1  0  0  0  0
 17 18  1  0  0  0  0
 18 19  1  0  0  0  0
 15 19  1  0  0  0  0
 11 20  2  0  0  0  0
  2 21  1  0  0  0  0
 21 22  1  0  0  0  0
M  CHG  2  15   1  23  -1
M  END
>  <Name>
Buflomedil HCl

>  <CAS>
35543-24-9

>  <Formula>
C17H26ClNO4

>  <MolWt>
343.85 

>  <Bioactivity>
Buflomedil HCl is a vasodilator used to treat claudication or the symptoms of peripheral arterial disease.

>  <Pathways>
GPCR/G Protein

>  <Target>
Adrenergic Receptor antagonist

>  <Receptor>
?-adrenergic receptor

>  <Reference>
1. Redondo P, et al. Exp Dermatol, 1997, 6(4), 186-194.

$$$$
T0337
  Mrv1561503291623562D          

 29 32  0  0  1  0            999 V2000
    3.9629    0.9934    0.0000 C   0  0  2  0  0  0  0  0  0  0  0  0
    3.6826    0.2174    0.0000 C   0  0  2  0  0  0  0  0  0  0  0  0
    2.8705    0.0722    0.0000 C   0  0  1  0  0  0  0  0  0  0  0  0
    2.3387    0.7029    0.0000 C   0  0  1  0  0  0  0  0  0  0  0  0
    1.5266    0.5577    0.0000 C   0  0  2  0  0  0  0  0  0  0  0  0
    1.2463   -0.2182    0.0000 C   0  0  0  0  0  0  0  0  0  0  0  0
    0.4342   -0.3634    0.0000 C   0  0  0  0  0  0  0  0  0  0  0  0
   -0.0976    0.2673    0.0000 C   0  0  0  0  0  0  0  0  0  0  0  0
   -0.9098    0.1221    0.0000 O   0  0  0  0  0  0  0  0  0  0  0  0
    0.1827    1.0432    0.0000 C   0  0  0  0  0  0  0  0  0  0  0  0
    0.9948    1.1884    0.0000 C   0  0  0  0  0  0  0  0  0  0  0  0
    1.7781   -0.8489    0.0000 C   0  0  0  0  0  0  0  0  0  0  0  0
    2.5902   -0.7037    0.0000 C   0  0  0  0  0  0  0  0  0  0  0  0
    1.8069    1.3336    0.0000 C   0  0  0  0  0  0  0  0  0  0  0  0
    2.6190    1.4789    0.0000 C   0  0  2  0  0  0  0  0  0  0  0  0
    3.4311    1.6241    0.0000 C   0  0  0  0  0  0  0  0  0  0  0  0
    2.0872    2.1096    0.0000 O   0  0  0  0  0  0  0  0  0  0  0  0
    4.3340   -0.2889    0.0000 C   0  0  0  0  0  0  0  0  0  0  0  0
    5.0168    0.1741    0.0000 C   0  0  0  0  0  0  0  0  0  0  0  0
    4.7875    0.9666    0.0000 C   0  0  2  0  0  0  0  0  0  0  0  0
    5.5484    1.2854    0.0000 C   0  0  0  0  0  0  0  0  0  0  0  0
    6.2050    0.7859    0.0000 C   0  0  0  0  0  0  0  0  0  0  0  0
    6.9659    1.1048    0.0000 O   0  0  0  0  0  0  0  0  0  0  0  0
    7.6225    0.6053    0.0000 C   0  0  0  0  0  0  0  0  0  0  0  0
    8.3834    0.9242    0.0000 C   0  0  0  0  0  0  0  0  0  0  0  0
    7.5182   -0.2131    0.0000 O   0  0  0  0  0  0  0  0  0  0  0  0
    5.6527    2.1038    0.0000 O   0  0  0  0  0  0  0  0  0  0  0  0
    4.9089    1.7826    0.0000 O   0  0  0  0  0  0  0  0  0  0  0  0
    4.3228    1.7357    0.0000 C   0  0  0  0  0  0  0  0  0  0  0  0
  1  2  1  0  0  0  0
  2  3  1  0  0  0  0
  3  4  1  0  0  0  0
  4  5  1  0  0  0  0
  5  6  1  0  0  0  0
  6  7  2  0  0  0  0
  7  8  1  0  0  0  0
  8  9  2  0  0  0  0
  8 10  1  0  0  0  0
 10 11  2  0  0  0  0
  5 11  1  0  0  0  0
  6 12  1  0  0  0  0
 12 13  1  0  0  0  0
  3 13  1  6  0  0  0
  5 14  1  1  0  0  0
  4 15  1  1  0  0  0
 15 16  1  0  0  0  0
  1 16  1  0  0  0  0
 15 17  1  1  0  0  0
  2 18  1  1  0  0  0
 18 19  1  0  0  0  0
 19 20  1  0  0  0  0
  1 20  1  0  0  0  0
 20 21  1  1  0  0  0
 21 22  1  0  0  0  0
 22 23  1  0  0  0  0
 23 24  1  0  0  0  0
 24 25  1  0  0  0  0
 24 26  2  0  0  0  0
 21 27  2  0  0  0  0
 20 28  1  6  0  0  0
  1 29  1  1  0  0  0
M  END
>  <Name>
Prednisolone-21-acetate

>  <CAS>
52-21-1

>  <Formula>
C23H30O6

>  <MolWt>
402.48 

>  <Bioactivity>
Prednisolone Acetate is a synthetic corticosteroid drug that is particularly effective as an immunosuppressant agent.

>  <Pathways>
Endocrinology/ Hormones

>  <Target>
Glucocorticoid Receptor antagonist

>  <Receptor>
Glucocorticoid Receptor

>  <Reference>
1. Ikonomidis I, et al. Heart. 2009 Sep;95(18):1502-7.

$$$$
53885-35-1
  Mrv1561503291623562D          

 19 19  0  0  0  0            999 V2000
    0.4125    0.0000    0.0000 H   0  3  0  0  0  0  0  0  0  0  0  0
    2.7831    0.5219    0.0000 C   0  0  0  0  0  0  0  0  0  0  0  0
    2.2982   -0.1456    0.0000 C   0  0  0  0  0  0  0  0  0  0  0  0
    2.7831   -0.8130    0.0000 S   0  0  0  0  0  0  0  0  0  0  0  0
    3.5678   -0.5581    0.0000 C   0  0  0  0  0  0  0  0  0  0  0  0
    3.5678    0.2669    0.0000 C   0  0  0  0  0  0  0  0  0  0  0  0
    4.2822    0.6794    0.0000 C   0  0  0  0  0  0  0  0  0  0  0  0
    4.9967    0.2669    0.0000 N   0  0  0  0  0  0  0  0  0  0  0  0
    5.7112    0.6794    0.0000 C   0  0  0  0  0  0  0  0  0  0  0  0
    6.4256    0.2669    0.0000 C   0  0  0  0  0  0  0  0  0  0  0  0
    7.1401    0.6794    0.0000 C   0  0  0  0  0  0  0  0  0  0  0  0
    7.1401    1.5044    0.0000 Cl  0  0  0  0  0  0  0  0  0  0  0  0
    7.8546    0.2669    0.0000 C   0  0  0  0  0  0  0  0  0  0  0  0
    7.8546   -0.5581    0.0000 C   0  0  0  0  0  0  0  0  0  0  0  0
    7.1401   -0.9706    0.0000 C   0  0  0  0  0  0  0  0  0  0  0  0
    6.4256   -0.5581    0.0000 C   0  0  0  0  0  0  0  0  0  0  0  0
    4.9967   -0.5581    0.0000 C   0  0  0  0  0  0  0  0  0  0  0  0
    4.2822   -0.9706    0.0000 C   0  0  0  0  0  0  0  0  0  0  0  0
   -0.4125    0.0000    0.0000 Cl  0  5  0  0  0  0  0  0  0  0  0  0
  2  3  2  0  0  0  0
  3  4  1  0  0  0  0
  4  5  1  0  0  0  0
  5  6  2  0  0  0  0
  2  6  1  0  0  0  0
  6  7  1  0  0  0  0
  7  8  1  0  0  0  0
  8  9  1  0  0  0  0
  9 10  1  0  0  0  0
 10 11  2  0  0  0  0
 11 12  1  0  0  0  0
 11 13  1  0  0  0  0
 13 14  2  0  0  0  0
 14 15  1  0  0  0  0
 15 16  2  0  0  0  0
 10 16  1  0  0  0  0
  8 17  1  0  0  0  0
 17 18  1  0  0  0  0
  5 18  1  0  0  0  0
M  CHG  2   1   1  19  -1
M  END
>  <Name>
Ticlopidine HCl

>  <CAS>
53885-35-1

>  <Formula>
C14H15Cl2NS

>  <MolWt>
300.25 

>  <Bioactivity>
Ticlopidine is an effective inhibitor of platelet aggregation. It is a prodrug that is metabolised to an active form, which blocks the ADP receptor that is involved in GPIIb/IIIa receptor activation leading to platelet aggregation. Ticlopidine is marketed under the brand name Ticlid and is indicated for patients who cannot take aspirin or in whom aspirin has not worked to prevent a thrombotic stroke. The FDA label includes a black-box warning of neutropenia, aplastic anemia, thrombotic thrombocytopenia purpura, and agranulocytosis, so it is necessary to monitor patients’ WBC and platelets when they are taking ticlopidine. 

>  <Pathways>
Neuroscience

>  <Target>
P2 Receptor inhibitor

>  <Receptor>
P2Y receptor

>  <Reference>
1. Storey RF. Platelets. 2001 Jun;12(4):197-209. 

$$$$
130-61-0
  Mrv1561503291623562D          

 27 28  0  0  0  0            999 V2000
    0.4125    0.0000    0.0000 H   0  3  0  0  0  0  0  0  0  0  0  0
    6.3420   -0.3795    0.0000 C   0  0  0  0  0  0  0  0  0  0  0  0
    7.0565   -0.7920    0.0000 C   0  0  0  0  0  0  0  0  0  0  0  0
    7.7709   -0.3795    0.0000 S   0  0  0  0  0  0  0  0  0  0  0  0
    8.4854   -0.7920    0.0000 C   0  0  0  0  0  0  0  0  0  0  0  0
    7.0565   -1.6170    0.0000 C   0  0  0  0  0  0  0  0  0  0  0  0
    6.3420   -2.0295    0.0000 C   0  0  0  0  0  0  0  0  0  0  0  0
    5.6275   -1.6170    0.0000 C   0  0  0  0  0  0  0  0  0  0  0  0
    5.6275   -0.7920    0.0000 C   0  0  0  0  0  0  0  0  0  0  0  0
    4.9131   -0.3795    0.0000 N   0  0  0  0  0  0  0  0  0  0  0  0
    4.1986   -0.7920    0.0000 C   0  0  0  0  0  0  0  0  0  0  0  0
    4.1986   -1.6170    0.0000 C   0  0  0  0  0  0  0  0  0  0  0  0
    4.9131   -2.0295    0.0000 S   0  0  0  0  0  0  0  0  0  0  0  0
    3.4841   -2.0295    0.0000 C   0  0  0  0  0  0  0  0  0  0  0  0
    2.7696   -1.6170    0.0000 C   0  0  0  0  0  0  0  0  0  0  0  0
    2.7696   -0.7920    0.0000 C   0  0  0  0  0  0  0  0  0  0  0  0
    3.4841   -0.3795    0.0000 C   0  0  0  0  0  0  0  0  0  0  0  0
    4.9131    0.4455    0.0000 C   0  0  0  0  0  0  0  0  0  0  0  0
    4.1986    0.8580    0.0000 C   0  0  0  0  0  0  0  0  0  0  0  0
    4.1986    1.6830    0.0000 C   0  0  0  0  0  0  0  0  0  0  0  0
    3.4841    2.0955    0.0000 N   0  0  0  0  0  0  0  0  0  0  0  0
    3.4841    2.9205    0.0000 C   0  0  0  0  0  0  0  0  0  0  0  0
    4.1986    3.3330    0.0000 C   0  0  0  0  0  0  0  0  0  0  0  0
    4.9131    2.9205    0.0000 C   0  0  0  0  0  0  0  0  0  0  0  0
    4.9131    2.0955    0.0000 C   0  0  0  0  0  0  0  0  0  0  0  0
    2.7696    1.6830    0.0000 C   0  0  0  0  0  0  0  0  0  0  0  0
   -0.4125    0.0000    0.0000 Cl  0  5  0  0  0  0  0  0  0  0  0  0
  2  3  2  0  0  0  0
  3  4  1  0  0  0  0
  4  5  1  0  0  0  0
  3  6  1  0  0  0  0
  6  7  2  0  0  0  0
  7  8  1  0  0  0  0
  8  9  2  0  0  0  0
  2  9  1  0  0  0  0
  9 10  1  0  0  0  0
 10 11  1  0  0  0  0
 11 12  2  0  0  0  0
 12 13  1  0  0  0  0
  8 13  1  0  0  0  0
 12 14  1  0  0  0  0
 14 15  2  0  0  0  0
 15 16  1  0  0  0  0
 16 17  2  0  0  0  0
 11 17  1  0  0  0  0
 10 18  1  0  0  0  0
 18 19  1  0  0  0  0
 19 20  1  0  0  0  0
 20 21  1  0  0  0  0
 21 22  1  0  0  0  0
 22 23  1  0  0  0  0
 23 24  1  0  0  0  0
 24 25  1  0  0  0  0
 20 25  1  0  0  0  0
 21 26  1  0  0  0  0
M  CHG  2   1   1  27  -1
M  END
>  <Name>
Thioridazine HCl

>  <CAS>
130-61-0

>  <Formula>
C21H27ClN2S2

>  <MolWt>
407.04 

>  <Bioactivity>
A phenothiazine antipsychotic used in the management of PHYCOSES, including SCHIZOPHRENIA.

>  <Pathways>
Neuroscience

>  <Target>
5-HT Receptor antagonist;Adrenergic Receptor antagonist;Dopamine Receptor antagonist;Potassium Channel inhibitor

>  <Receptor>
5-HT receptor ;Adrenergic receptor;Dopamine receptor;Potassium Channel

>  <Reference>
1. Assie MB, et al. Eur J Pharmacol. 1993 Jun 24;237(2-3):183-9. 

$$$$
2030-63-9
  Mrv1561503291623562D          

 33 37  0  0  0  0            999 V2000
    3.5724   -0.4125    0.0000 C   0  0  0  0  0  0  0  0  0  0  0  0
    4.2868   -0.0000    0.0000 C   0  0  0  0  0  0  0  0  0  0  0  0
    4.2868    0.8250    0.0000 C   0  0  0  0  0  0  0  0  0  0  0  0
    3.5724    1.2375    0.0000 C   0  0  0  0  0  0  0  0  0  0  0  0
    2.8579    0.8250    0.0000 C   0  0  0  0  0  0  0  0  0  0  0  0
    2.8579   -0.0000    0.0000 C   0  0  0  0  0  0  0  0  0  0  0  0
    2.1434   -0.4125    0.0000 N   0  0  0  0  0  0  0  0  0  0  0  0
    1.4289    0.0000    0.0000 C   0  0  0  0  0  0  0  0  0  0  0  0
    0.7145   -0.4125    0.0000 C   0  0  0  0  0  0  0  0  0  0  0  0
    0.0000   -0.0000    0.0000 C   0  0  0  0  0  0  0  0  0  0  0  0
   -0.7145   -0.4125    0.0000 N   0  0  0  0  0  0  0  0  0  0  0  0
   -1.4289    0.0000    0.0000 C   0  0  0  0  0  0  0  0  0  0  0  0
   -2.1434   -0.4125    0.0000 C   0  0  0  0  0  0  0  0  0  0  0  0
   -1.4289    0.8250    0.0000 C   0  0  0  0  0  0  0  0  0  0  0  0
   -0.0000    0.8250    0.0000 C   0  0  0  0  0  0  0  0  0  0  0  0
    0.7145    1.2375    0.0000 C   0  0  0  0  0  0  0  0  0  0  0  0
    1.4289    0.8250    0.0000 C   0  0  0  0  0  0  0  0  0  0  0  0
    2.1434    1.2375    0.0000 N   0  0  0  0  0  0  0  0  0  0  0  0
   -0.7145    1.2375    0.0000 N   0  0  0  0  0  0  0  0  0  0  0  0
   -0.7145    2.0625    0.0000 C   0  0  0  0  0  0  0  0  0  0  0  0
   -1.4289    2.4750    0.0000 C   0  0  0  0  0  0  0  0  0  0  0  0
   -1.4289    3.3000    0.0000 C   0  0  0  0  0  0  0  0  0  0  0  0
   -0.7145    3.7125    0.0000 C   0  0  0  0  0  0  0  0  0  0  0  0
   -0.7145    4.5375    0.0000 Cl  0  0  0  0  0  0  0  0  0  0  0  0
    0.0000    3.3000    0.0000 C   0  0  0  0  0  0  0  0  0  0  0  0
    0.0000    2.4750    0.0000 C   0  0  0  0  0  0  0  0  0  0  0  0
    2.1434   -1.2375    0.0000 C   0  0  0  0  0  0  0  0  0  0  0  0
    2.8579   -1.6500    0.0000 C   0  0  0  0  0  0  0  0  0  0  0  0
    2.8579   -2.4750    0.0000 C   0  0  0  0  0  0  0  0  0  0  0  0
    2.1434   -2.8875    0.0000 C   0  0  0  0  0  0  0  0  0  0  0  0
    2.1434   -3.7125    0.0000 Cl  0  0  0  0  0  0  0  0  0  0  0  0
    1.4289   -2.4750    0.0000 C   0  0  0  0  0  0  0  0  0  0  0  0
    1.4289   -1.6500    0.0000 C   0  0  0  0  0  0  0  0  0  0  0  0
  1  2  2  0  0  0  0
  2  3  1  0  0  0  0
  3  4  2  0  0  0  0
  4  5  1  0  0  0  0
  5  6  2  0  0  0  0
  1  6  1  0  0  0  0
  6  7  1  0  0  0  0
  7  8  1  0  0  0  0
  8  9  2  0  0  0  0
  9 10  1  0  0  0  0
 10 11  2  0  0  0  0
 11 12  1  4  0  0  0
 12 13  1  0  0  0  0
 12 14  1  0  0  0  0
 10 15  1  0  0  0  0
 15 16  2  0  0  0  0
 16 17  1  0  0  0  0
  8 17  1  0  0  0  0
 17 18  2  0  0  0  0
  5 18  1  0  0  0  0
 15 19  1  0  0  0  0
 19 20  1  0  0  0  0
 20 21  2  0  0  0  0
 21 22  1  0  0  0  0
 22 23  2  0  0  0  0
 23 24  1  0  0  0  0
 23 25  1  0  0  0  0
 25 26  2  0  0  0  0
 20 26  1  0  0  0  0
  7 27  1  0  0  0  0
 27 28  2  0  0  0  0
 28 29  1  0  0  0  0
 29 30  2  0  0  0  0
 30 31  1  0  0  0  0
 30 32  1  0  0  0  0
 32 33  2  0  0  0  0
 27 33  1  0  0  0  0
M  END
>  <Name>
Clofazimine

>  <CAS>
2030-63-9

>  <Formula>
C27H22Cl2N4

>  <MolWt>
473.40 

>  <Bioactivity>
A fat-soluble riminophenazine dye used for the treatment of leprosy. It has been used investigationally in combination with other antimycobacterial drugs to treat Mycobacterium avium infections in AIDS patients. Clofazimine also has a marked anti-inflammatory effect and is given to control the leprosy reaction, erythema nodosum leprosum. (From AMA Drug Evaluations Annual, 1993, p1619)  

>  <Pathways>
Enzyme; DNA Damage/DNA Repair

>  <Target>
CzcO-like inhibitor;DNA intercalation

>  <Receptor>
CzcO-like;DNA

>  <Reference>
1. Cholo MC, et al. J Antimicrob Chemother. 2006 Jan;57(1):79-84.

$$$$
5987-82-6
  Mrv1561503291623562D          

 24 22  0  0  0  0            999 V2000
    0.4125    0.0000    0.0000 H   0  3  0  0  0  0  0  0  0  0  0  0
    4.8321    0.4871    0.0000 C   0  0  0  0  0  0  0  0  0  0  0  0
    5.2446   -0.2273    0.0000 C   0  0  0  0  0  0  0  0  0  0  0  0
    6.0696   -0.2273    0.0000 C   0  0  0  0  0  0  0  0  0  0  0  0
    6.4821   -0.9418    0.0000 O   0  0  0  0  0  0  0  0  0  0  0  0
    7.3071   -0.9418    0.0000 C   0  0  0  0  0  0  0  0  0  0  0  0
    7.7196   -1.6563    0.0000 C   0  0  0  0  0  0  0  0  0  0  0  0
    8.5446   -1.6563    0.0000 N   0  0  0  0  0  0  0  0  0  0  0  0
    8.9571   -2.3707    0.0000 C   0  0  0  0  0  0  0  0  0  0  0  0
    9.7821   -2.3707    0.0000 C   0  0  0  0  0  0  0  0  0  0  0  0
    8.9571   -0.9418    0.0000 C   0  0  0  0  0  0  0  0  0  0  0  0
    9.7821   -0.9418    0.0000 C   0  0  0  0  0  0  0  0  0  0  0  0
    6.4821    0.4871    0.0000 O   0  0  0  0  0  0  0  0  0  0  0  0
    4.8321   -0.9418    0.0000 C   0  0  0  0  0  0  0  0  0  0  0  0
    4.0071   -0.9418    0.0000 C   0  0  0  0  0  0  0  0  0  0  0  0
    3.5946   -0.2273    0.0000 C   0  0  0  0  0  0  0  0  0  0  0  0
    4.0071    0.4871    0.0000 C   0  0  0  0  0  0  0  0  0  0  0  0
    3.5946    1.2016    0.0000 O   0  0  0  0  0  0  0  0  0  0  0  0
    4.0071    1.9161    0.0000 C   0  0  0  0  0  0  0  0  0  0  0  0
    3.5946    2.6306    0.0000 C   0  0  0  0  0  0  0  0  0  0  0  0
    4.0071    3.3450    0.0000 C   0  0  0  0  0  0  0  0  0  0  0  0
    3.5946    4.0595    0.0000 C   0  0  0  0  0  0  0  0  0  0  0  0
    2.7696   -0.2273    0.0000 N   0  0  0  0  0  0  0  0  0  0  0  0
   -0.4125    0.0000    0.0000 Cl  0  5  0  0  0  0  0  0  0  0  0  0
  2  3  2  0  0  0  0
  3  4  1  0  0  0  0
  4  5  1  0  0  0  0
  5  6  1  0  0  0  0
  6  7  1  0  0  0  0
  7  8  1  0  0  0  0
  8  9  1  0  0  0  0
  9 10  1  0  0  0  0
  8 11  1  0  0  0  0
 11 12  1  0  0  0  0
  4 13  2  0  0  0  0
  3 14  1  0  0  0  0
 14 15  2  0  0  0  0
 15 16  1  0  0  0  0
 16 17  2  0  0  0  0
  2 17  1  0  0  0  0
 17 18  1  0  0  0  0
 18 19  1  0  0  0  0
 19 20  1  0  0  0  0
 20 21  1  0  0  0  0
 21 22  1  0  0  0  0
 16 23  1  0  0  0  0
M  CHG  2   1   1  24  -1
M  END
>  <Name>
Oxybuprocaine HCl

>  <CAS>
5987-82-6

>  <Formula>
C17H29ClN2O3

>  <MolWt>
344.88 

>  <Bioactivity>
Oxybuprocaine HCl is a local anesthetic, which is used especially in ophthalmology and otolaryngology.

>  <Pathways>
Membrane Transporter/Ion Channel

>  <Target>
Sodium Channel inhibitor

>  <Receptor>
Sodium Channel

>  <Reference>
1. Hung CH, et al. Neurosci Lett. 2009 May 1; 454(3):249-53. 

$$$$
165800-03-3
  Mrv1561503291623562D          

 24 26  0  0  1  0            999 V2000
    0.7145   -3.7125    0.0000 C   0  0  1  0  0  0  0  0  0  0  0  0
    1.3819   -4.1974    0.0000 C   0  0  0  0  0  0  0  0  0  0  0  0
    1.1270   -4.9820    0.0000 N   0  0  0  0  0  0  0  0  0  0  0  0
    1.6119   -5.6495    0.0000 C   0  0  0  0  0  0  0  0  0  0  0  0
    2.4324   -5.5632    0.0000 C   0  0  0  0  0  0  0  0  0  0  0  0
    2.9173   -6.2307    0.0000 C   0  0  0  0  0  0  0  0  0  0  0  0
    2.5817   -6.9844    0.0000 C   0  0  0  0  0  0  0  0  0  0  0  0
    1.7613   -7.0706    0.0000 C   0  0  0  0  0  0  0  0  0  0  0  0
    1.2763   -6.4032    0.0000 C   0  0  0  0  0  0  0  0  0  0  0  0
    1.4257   -7.8243    0.0000 F   0  0  0  0  0  0  0  0  0  0  0  0
    3.0667   -7.6518    0.0000 N   0  0  0  0  0  0  0  0  0  0  0  0
    3.8871   -7.5656    0.0000 C   0  0  0  0  0  0  0  0  0  0  0  0
    4.3721   -8.2330    0.0000 C   0  0  0  0  0  0  0  0  0  0  0  0
    4.0365   -8.9867    0.0000 O   0  0  0  0  0  0  0  0  0  0  0  0
    3.2160   -9.0729    0.0000 C   0  0  0  0  0  0  0  0  0  0  0  0
    2.7311   -8.4055    0.0000 C   0  0  0  0  0  0  0  0  0  0  0  0
    0.3020   -4.9820    0.0000 C   0  0  0  0  0  0  0  0  0  0  0  0
    0.0470   -4.1974    0.0000 O   0  0  0  0  0  0  0  0  0  0  0  0
   -0.1830   -5.6495    0.0000 O   0  0  0  0  0  0  0  0  0  0  0  0
    0.7145   -2.8875    0.0000 C   0  0  0  0  0  0  0  0  0  0  0  0
   -0.0000   -2.4750    0.0000 N   0  0  0  0  0  0  0  0  0  0  0  0
   -0.0000   -1.6500    0.0000 C   0  0  0  0  0  0  0  0  0  0  0  0
   -0.7145   -1.2375    0.0000 C   0  0  0  0  0  0  0  0  0  0  0  0
    0.7145   -1.2375    0.0000 O   0  0  0  0  0  0  0  0  0  0  0  0
  1  2  1  0  0  0  0
  2  3  1  0  0  0  0
  3  4  1  0  0  0  0
  4  5  2  0  0  0  0
  5  6  1  0  0  0  0
  6  7  2  0  0  0  0
  7  8  1  0  0  0  0
  8  9  2  0  0  0  0
  4  9  1  0  0  0  0
  8 10  1  0  0  0  0
  7 11  1  0  0  0  0
 11 12  1  0  0  0  0
 12 13  1  0  0  0  0
 13 14  1  0  0  0  0
 14 15  1  0  0  0  0
 15 16  1  0  0  0  0
 11 16  1  0  0  0  0
  3 17  1  0  0  0  0
 17 18  1  0  0  0  0
  1 18  1  0  0  0  0
 17 19  2  0  0  0  0
  1 20  1  1  0  0  0
 20 21  1  0  0  0  0
 21 22  1  0  0  0  0
 22 23  1  0  0  0  0
 22 24  2  0  0  0  0
M  END
>  <Name>
Linezolid

>  <CAS>
165800-03-3

>  <Formula>
C16H20FN3O4

>  <MolWt>
337.35 

>  <Bioactivity>
Linezolid is a synthetic antibiotic, the first of the oxazolidinone class, used for the treatment of infections caused by multi-resistant bacteria including streptococcus and methicillin-resistant Staphylococcus aureus (MRSA). The drug works by inhibiting the initiation of bacterial protein synthesis. 

>  <Pathways>
Microbiology & Virology; Enzyme

>  <Target>
Antibiotic; AO inhibitor

>  <Receptor>
AOA, AOB

>  <Reference>
1. Stevens DL, et al. Expert Rev Anti Infect Ther. 2004 Feb;2(1):51-9. 

$$$$
26921-17-5
  Mrv1561503291623562D          

 29 29  0  0  1  0            999 V2000
    0.5710    0.9064    0.0000 C   0  0  2  0  0  0  0  0  0  0  0  0
    0.5710    0.0814    0.0000 C   0  0  0  0  0  0  0  0  0  0  0  0
    1.2855   -0.3311    0.0000 O   0  0  0  0  0  0  0  0  0  0  0  0
    1.2855   -1.1561    0.0000 C   0  0  0  0  0  0  0  0  0  0  0  0
    1.9529   -1.6410    0.0000 N   0  0  0  0  0  0  0  0  0  0  0  0
    1.6980   -2.4257    0.0000 S   0  0  0  0  0  0  0  0  0  0  0  0
    0.8730   -2.4257    0.0000 N   0  0  0  0  0  0  0  0  0  0  0  0
    0.6180   -1.6410    0.0000 C   0  0  0  0  0  0  0  0  0  0  0  0
   -0.1666   -1.3861    0.0000 N   0  0  0  0  0  0  0  0  0  0  0  0
   -0.7797   -1.9381    0.0000 C   0  0  0  0  0  0  0  0  0  0  0  0
   -1.5643   -1.6832    0.0000 C   0  0  0  0  0  0  0  0  0  0  0  0
   -1.7358   -0.8762    0.0000 O   0  0  0  0  0  0  0  0  0  0  0  0
   -1.1227   -0.3242    0.0000 C   0  0  0  0  0  0  0  0  0  0  0  0
   -0.3381   -0.5791    0.0000 C   0  0  0  0  0  0  0  0  0  0  0  0
   -0.1435    1.3189    0.0000 C   0  0  0  0  0  0  0  0  0  0  0  0
   -0.1435    2.1439    0.0000 N   0  0  0  0  0  0  0  0  0  0  0  0
   -0.8579    2.5564    0.0000 C   0  0  0  0  0  0  0  0  0  0  0  0
   -1.5724    2.9689    0.0000 C   0  0  0  0  0  0  0  0  0  0  0  0
   -0.4454    3.2709    0.0000 C   0  0  0  0  0  0  0  0  0  0  0  0
   -1.2704    1.8419    0.0000 C   0  0  0  0  0  0  0  0  0  0  0  0
    1.2855    1.3189    0.0000 O   0  0  0  0  0  0  0  0  0  0  0  0
    7.0208   -0.0000    0.0000 O   0  0  0  0  0  0  0  0  0  0  0  0
    6.1958    0.0000    0.0000 C   0  0  0  0  0  0  0  0  0  0  0  0
    5.7833    0.7145    0.0000 C   0  0  0  0  0  0  0  0  0  0  0  0
    4.9583    0.7145    0.0000 C   0  0  0  0  0  0  0  0  0  0  0  0
    4.5458    0.0000    0.0000 C   0  0  0  0  0  0  0  0  0  0  0  0
    4.9583   -0.7145    0.0000 O   0  0  0  0  0  0  0  0  0  0  0  0
    3.7208    0.0000    0.0000 O   0  0  0  0  0  0  0  0  0  0  0  0
    5.7833   -0.7145    0.0000 O   0  0  0  0  0  0  0  0  0  0  0  0
  1  2  1  0  0  0  0
  2  3  1  0  0  0  0
  3  4  1  0  0  0  0
  4  5  2  0  0  0  0
  5  6  1  0  0  0  0
  6  7  1  0  0  0  0
  7  8  2  0  0  0  0
  4  8  1  0  0  0  0
  8  9  1  0  0  0  0
  9 10  1  0  0  0  0
 10 11  1  0  0  0  0
 11 12  1  0  0  0  0
 12 13  1  0  0  0  0
 13 14  1  0  0  0  0
  9 14  1  0  0  0  0
  1 15  1  0  0  0  0
 15 16  1  0  0  0  0
 16 17  1  0  0  0  0
 17 18  1  0  0  0  0
 17 19  1  0  0  0  0
 17 20  1  0  0  0  0
  1 21  1  6  0  0  0
 22 23  2  0  0  0  0
 23 24  1  0  0  0  0
 24 25  2  0  0  0  0
 25 26  1  0  0  0  0
 26 27  1  0  0  0  0
 26 28  2  0  0  0  0
 23 29  1  0  0  0  0
M  END
>  <Name>
Timolol Maleate

>  <CAS>
26921-17-5

>  <Formula>
C17H28N4O7S

>  <MolWt>
432.50 

>  <Bioactivity>
A beta-adrenergic antagonist similar in action to propranolol. The levo-isomer is the more active. Timolol has been proposed as an antihypertensive, antiarrhythmic, antiangina, and antiglaucoma agent. It is also used in the treatment of migraine disorders and tremor. 

>  <Pathways>
GPCR/G Protein

>  <Target>
Adrenergic Receptor antagonist

>  <Receptor>
?-adrenergic receptor

>  <Reference>
1. Hall RA, et al. Arch Int Pharmacodyn Ther, 1975, 213(2), 251-263.

$$$$
T0476
  Mrv1561503291623562D          

 29 33  0  0  1  0            999 V2000
    4.8019   -0.0226    0.0000 C   0  0  2  0  0  0  0  0  0  0  0  0
    4.0076    0.2004    0.0000 C   0  0  2  0  0  0  0  0  0  0  0  0
    3.5501   -0.4861    0.0000 C   0  0  2  0  0  0  0  0  0  0  0  0
    2.7268   -0.4330    0.0000 C   0  0  1  0  0  0  0  0  0  0  0  0
    2.3611    0.3065    0.0000 C   0  0  1  0  0  0  0  0  0  0  0  0
    1.5378    0.3595    0.0000 C   0  0  2  0  0  0  0  0  0  0  0  0
    1.0802   -0.3270    0.0000 C   0  0  0  0  0  0  0  0  0  0  0  0
    0.2569   -0.2740    0.0000 C   0  0  0  0  0  0  0  0  0  0  0  0
   -0.1088    0.4655    0.0000 C   0  0  0  0  0  0  0  0  0  0  0  0
   -0.9321    0.5185    0.0000 O   0  0  0  0  0  0  0  0  0  0  0  0
    0.3487    1.1520    0.0000 C   0  0  0  0  0  0  0  0  0  0  0  0
    1.1720    1.0990    0.0000 C   0  0  0  0  0  0  0  0  0  0  0  0
    1.4459   -1.0665    0.0000 C   0  0  0  0  0  0  0  0  0  0  0  0
    2.2692   -1.1195    0.0000 C   0  0  1  0  0  0  0  0  0  0  0  0
    2.6350   -1.8590    0.0000 S   0  0  0  0  0  0  0  0  0  0  0  0
    2.1774   -2.5455    0.0000 C   0  0  0  0  0  0  0  0  0  0  0  0
    2.5431   -3.2850    0.0000 C   0  0  0  0  0  0  0  0  0  0  0  0
    1.3541   -2.4925    0.0000 O   0  0  0  0  0  0  0  0  0  0  0  0
    1.9953    1.0460    0.0000 C   0  0  0  0  0  0  0  0  0  0  0  0
    2.8186    0.9930    0.0000 C   0  0  0  0  0  0  0  0  0  0  0  0
    3.6419    0.9399    0.0000 C   0  0  0  0  0  0  0  0  0  0  0  0
    4.0616   -1.1334    0.0000 C   0  0  0  0  0  0  0  0  0  0  0  0
    4.8353   -0.8469    0.0000 C   0  0  0  0  0  0  0  0  0  0  0  0
    4.3125    0.9670    0.0000 C   0  0  0  0  0  0  0  0  0  0  0  0
    4.7686    0.8017    0.0000 O   0  0  0  0  0  0  0  0  0  0  0  0
    5.5423    1.0882    0.0000 C   0  0  0  0  0  0  0  0  0  0  0  0
    5.7653    1.8824    0.0000 O   0  0  0  0  0  0  0  0  0  0  0  0
    6.0538    0.4409    0.0000 C   0  0  0  0  0  0  0  0  0  0  0  0
    5.5962   -0.2456    0.0000 C   0  0  0  0  0  0  0  0  0  0  0  0
  1  2  1  0  0  0  0
  2  3  1  0  0  0  0
  3  4  1  0  0  0  0
  4  5  1  0  0  0  0
  5  6  1  0  0  0  0
  6  7  1  0  0  0  0
  7  8  2  0  0  0  0
  8  9  1  0  0  0  0
  9 10  2  0  0  0  0
  9 11  1  0  0  0  0
 11 12  1  0  0  0  0
  6 12  1  0  0  0  0
  7 13  1  0  0  0  0
 13 14  1  0  0  0  0
  4 14  1  6  0  0  0
 14 15  1  6  0  0  0
 15 16  1  0  0  0  0
 16 17  1  0  0  0  0
 16 18  2  0  0  0  0
  6 19  1  1  0  0  0
  5 20  1  1  0  0  0
 20 21  1  0  0  0  0
  2 21  1  0  0  0  0
  3 22  1  1  0  0  0
 22 23  1  0  0  0  0
  1 23  1  0  0  0  0
  2 24  1  1  0  0  0
  1 25  1  1  0  0  0
 25 26  1  0  0  0  0
 26 27  2  0  0  0  0
 26 28  1  0  0  0  0
 28 29  1  0  0  0  0
  1 29  1  0  0  0  0
M  END
>  <Name>
Abbolactone

>  <CAS>
52-01-7

>  <Formula>
C24H32O4S

>  <MolWt>
416.57 

>  <Bioactivity>
A potassium sparing diuretic that acts by antagonism of aldosterone in the distal renal tubules. It is used mainly in the treatment of refractory edema in patients with congestive heart failure, nephrotic syndrome, or hepatic cirrhosis. Its effects on the endocrine system are utilized in the treatments of hirsutism and acne but they can lead to adverse effects. (From Martindale, The Extra Pharmacopoeia, 30th ed, p827). 

>  <Pathways>
Endocrinology/ Hormones; Membrane Transporter/Ion Channel

>  <Target>
Androgen Receptor antagonist;Calcium Channel;Estrogen/progestogen Receptor agonist;Glucocorticoid Receptor antagonist

>  <Receptor>
Androgen Receptor ;Calcium Channel;Estrogen/progestogen Receptor;Glucocorticoid Receptor

>  <Reference>
1. Ye P, et al. Horm Metab Res. 2009 Jan;41(1):35-9. 

$$$$
79559-97-0
  Mrv1561503291623562D          

 22 22  0  0  1  0            999 V2000
   -0.2501    0.1031    0.0000 C   0  0  0  0  0  0  0  0  0  0  0  0
    0.4644    0.5156    0.0000 C   0  0  0  0  0  0  0  0  0  0  0  0
    0.4644    1.3406    0.0000 C   0  0  0  0  0  0  0  0  0  0  0  0
   -0.2501    1.7531    0.0000 C   0  0  0  0  0  0  0  0  0  0  0  0
   -0.2501    2.5781    0.0000 N   0  0  0  0  0  0  0  0  0  0  0  0
   -0.9645    2.9906    0.0000 C   0  0  0  0  0  0  0  0  0  0  0  0
   -0.9645    1.3406    0.0000 C   0  0  0  0  0  0  0  0  0  0  0  0
   -0.9645    0.5156    0.0000 C   0  0  0  0  0  0  0  0  0  0  0  0
    1.1789    1.7531    0.0000 C   0  0  0  0  0  0  0  0  0  0  0  0
    1.8933    1.3406    0.0000 C   0  0  0  0  0  0  0  0  0  0  0  0
    1.8933    0.5156    0.0000 C   0  0  0  0  0  0  0  0  0  0  0  0
    1.1789    0.1031    0.0000 C   0  0  0  0  0  0  0  0  0  0  0  0
   -0.2501   -0.7219    0.0000 C   0  0  0  0  0  0  0  0  0  0  0  0
    0.4644   -1.1344    0.0000 C   0  0  0  0  0  0  0  0  0  0  0  0
    0.4644   -1.9594    0.0000 C   0  0  0  0  0  0  0  0  0  0  0  0
   -0.2501   -2.3719    0.0000 C   0  0  0  0  0  0  0  0  0  0  0  0
   -0.2501   -3.1969    0.0000 Cl  0  0  0  0  0  0  0  0  0  0  0  0
   -0.9645   -1.9594    0.0000 C   0  0  0  0  0  0  0  0  0  0  0  0
   -0.9645   -1.1344    0.0000 C   0  0  0  0  0  0  0  0  0  0  0  0
   -1.6790   -2.3719    0.0000 Cl  0  0  0  0  0  0  0  0  0  0  0  0
    5.0755    0.0000    0.0000 H   0  3  0  0  0  0  0  0  0  0  0  0
    4.2505    0.0000    0.0000 Cl  0  5  0  0  0  0  0  0  0  0  0  0
  1  2  1  0  0  0  0
  2  3  2  0  0  0  0
  3  4  1  0  0  0  0
  4  5  1  0  0  0  0
  5  6  1  0  0  0  0
  4  7  1  0  0  0  0
  7  8  1  0  0  0  0
  1  8  1  0  0  0  0
  3  9  1  0  0  0  0
  9 10  2  0  0  0  0
 10 11  1  0  0  0  0
 11 12  2  0  0  0  0
  2 12  1  0  0  0  0
  1 13  1  0  0  0  0
 13 14  2  0  0  0  0
 14 15  1  0  0  0  0
 15 16  2  0  0  0  0
 16 17  1  0  0  0  0
 16 18  1  0  0  0  0
 18 19  2  0  0  0  0
 13 19  1  0  0  0  0
 18 20  1  0  0  0  0
M  CHG  2  21   1  22  -1
M  END
>  <Name>
Sertraline HCl

>  <CAS>
79559-97-0

>  <Formula>
C17H17CI2N.HCl

>  <MolWt>
342.69 

>  <Bioactivity>
Sertraline hydrochloride is an antidepressant of the selective serotonin reuptake inhibitor (SSRI) class.

>  <Pathways>
Neuroscience

>  <Target>
5-HT Receptor antagonist

>  <Receptor>
5-HT receptor;Sodium-dependent dopamine transporter;Sodium-dependent serotonin transporter

>  <Reference>
1. Koe BK, et al. J Pharmacol Exp Ther, 1983, 226(3), 686-700.

$$$$
959-24-0
  Mrv1561503291623562D          

 20 18  0  0  0  0            999 V2000
    0.4125    0.0000    0.0000 H   0  3  0  0  0  0  0  0  0  0  0  0
    5.7527    0.5500    0.0000 C   0  0  0  0  0  0  0  0  0  0  0  0
    5.7527   -0.2750    0.0000 C   0  0  0  0  0  0  0  0  0  0  0  0
    6.4672   -0.6875    0.0000 C   0  0  0  0  0  0  0  0  0  0  0  0
    6.4672   -1.5125    0.0000 O   0  0  0  0  0  0  0  0  0  0  0  0
    7.1817   -0.2750    0.0000 C   0  0  0  0  0  0  0  0  0  0  0  0
    7.8961   -0.6875    0.0000 N   0  0  0  0  0  0  0  0  0  0  0  0
    8.6106   -0.2750    0.0000 C   0  0  0  0  0  0  0  0  0  0  0  0
    9.3251   -0.6875    0.0000 C   0  0  0  0  0  0  0  0  0  0  0  0
    8.6106    0.5500    0.0000 C   0  0  0  0  0  0  0  0  0  0  0  0
    5.0382   -0.6875    0.0000 C   0  0  0  0  0  0  0  0  0  0  0  0
    4.3238   -0.2750    0.0000 C   0  0  0  0  0  0  0  0  0  0  0  0
    4.3238    0.5500    0.0000 C   0  0  0  0  0  0  0  0  0  0  0  0
    5.0382    0.9625    0.0000 C   0  0  0  0  0  0  0  0  0  0  0  0
    3.6093    0.9625    0.0000 N   0  0  0  0  0  0  0  0  0  0  0  0
    2.8948    0.5500    0.0000 S   0  0  0  0  0  0  0  0  0  0  0  0
    2.1804    0.1375    0.0000 O   0  0  0  0  0  0  0  0  0  0  0  0
    2.4823    1.2645    0.0000 O   0  0  0  0  0  0  0  0  0  0  0  0
    3.3073   -0.1645    0.0000 C   0  0  0  0  0  0  0  0  0  0  0  0
   -0.4125    0.0000    0.0000 Cl  0  5  0  0  0  0  0  0  0  0  0  0
  2  3  2  0  0  0  0
  3  4  1  0  0  0  0
  4  5  1  0  0  0  0
  4  6  1  0  0  0  0
  6  7  1  0  0  0  0
  7  8  1  0  0  0  0
  8  9  1  0  0  0  0
  8 10  1  0  0  0  0
  3 11  1  0  0  0  0
 11 12  2  0  0  0  0
 12 13  1  0  0  0  0
 13 14  2  0  0  0  0
  2 14  1  0  0  0  0
 13 15  1  0  0  0  0
 15 16  1  0  0  0  0
 16 17  2  0  0  0  0
 16 18  2  0  0  0  0
 16 19  1  0  0  0  0
M  CHG  2   1   1  20  -1
M  END
>  <Name>
Sotalol HCl

>  <CAS>
959-24-0

>  <Formula>
C12H21ClN2O3S

>  <MolWt>
308.82 

>  <Bioactivity>
An adrenergic beta-antagonist that is used in the treatment of life-threatening arrhythmias.  

>  <Pathways>
GPCR/G Protein

>  <Target>
Potassium Channel;Adrenergic Receptor antagonist

>  <Receptor>
Potassium Channel ;?-adrenergic receptor

>  <Reference>
1. Lowe MD, et al. Br J Pharmacol. 2002 Jan;135(2):451-61.

$$$$
169590-41-4
  Mrv1561503291623562D          

 27 29  0  0  0  0            999 V2000
    1.3819   -1.7224    0.0000 C   0  0  0  0  0  0  0  0  0  0  0  0
    1.1270   -2.5070    0.0000 C   0  0  0  0  0  0  0  0  0  0  0  0
    0.3020   -2.5070    0.0000 N   0  0  0  0  0  0  0  0  0  0  0  0
   -0.1830   -3.1745    0.0000 C   0  0  0  0  0  0  0  0  0  0  0  0
    0.1526   -3.9282    0.0000 C   0  0  0  0  0  0  0  0  0  0  0  0
   -0.3323   -4.5956    0.0000 C   0  0  0  0  0  0  0  0  0  0  0  0
   -1.1528   -4.5094    0.0000 C   0  0  0  0  0  0  0  0  0  0  0  0
   -1.6377   -5.1768    0.0000 S   0  0  0  0  0  0  0  0  0  0  0  0
   -2.1226   -5.8442    0.0000 N   0  0  0  0  0  0  0  0  0  0  0  0
   -0.9703   -5.6617    0.0000 O   0  0  0  0  0  0  0  0  0  0  0  0
   -2.3052   -4.6919    0.0000 O   0  0  0  0  0  0  0  0  0  0  0  0
   -1.4884   -3.7557    0.0000 C   0  0  0  0  0  0  0  0  0  0  0  0
   -1.0034   -3.0882    0.0000 C   0  0  0  0  0  0  0  0  0  0  0  0
    0.0470   -1.7224    0.0000 N   0  0  0  0  0  0  0  0  0  0  0  0
    0.7145   -1.2375    0.0000 C   0  0  0  0  0  0  0  0  0  0  0  0
    0.7145   -0.4125    0.0000 C   0  0  0  0  0  0  0  0  0  0  0  0
    1.4289    0.0000    0.0000 F   0  0  0  0  0  0  0  0  0  0  0  0
   -0.0000    0.0000    0.0000 F   0  0  0  0  0  0  0  0  0  0  0  0
    1.6119   -3.1745    0.0000 C   0  0  0  0  0  0  0  0  0  0  0  0
    2.4324   -3.0882    0.0000 C   0  0  0  0  0  0  0  0  0  0  0  0
    2.9173   -3.7557    0.0000 C   0  0  0  0  0  0  0  0  0  0  0  0
    2.5817   -4.5094    0.0000 C   0  0  0  0  0  0  0  0  0  0  0  0
    1.7613   -4.5956    0.0000 C   0  0  0  0  0  0  0  0  0  0  0  0
    1.2763   -3.9282    0.0000 C   0  0  0  0  0  0  0  0  0  0  0  0
    1.4257   -5.3493    0.0000 F   0  0  0  0  0  0  0  0  0  0  0  0
    3.0667   -5.1768    0.0000 O   0  0  0  0  0  0  0  0  0  0  0  0
    3.8871   -5.0906    0.0000 C   0  0  0  0  0  0  0  0  0  0  0  0
  1  2  2  0  0  0  0
  2  3  1  0  0  0  0
  3  4  1  0  0  0  0
  4  5  2  0  0  0  0
  5  6  1  0  0  0  0
  6  7  2  0  0  0  0
  7  8  1  0  0  0  0
  8  9  1  0  0  0  0
  8 10  2  0  0  0  0
  8 11  2  0  0  0  0
  7 12  1  0  0  0  0
 12 13  2  0  0  0  0
  4 13  1  0  0  0  0
  3 14  1  0  0  0  0
 14 15  2  0  0  0  0
  1 15  1  0  0  0  0
 15 16  1  0  0  0  0
 16 17  1  0  0  0  0
 16 18  1  0  0  0  0
  2 19  1  0  0  0  0
 19 20  2  0  0  0  0
 20 21  1  0  0  0  0
 21 22  2  0  0  0  0
 22 23  1  0  0  0  0
 23 24  2  0  0  0  0
 19 24  1  0  0  0  0
 23 25  1  0  0  0  0
 22 26  1  0  0  0  0
 26 27  1  0  0  0  0
M  END
>  <Name>
Deracoxib

>  <CAS>
169590-41-4

>  <Formula>
C17H14F3N3O3S

>  <MolWt>
397.37 

>  <Bioactivity>
Deracoxib, a selective cyclooxygenase-2 inhibitor, is a non-narcotic, non-steroidal anti-inflammatory drug (NSAID).

>  <Pathways>
Neuroscience

>  <Target>
COX

>  <Receptor>
COX2

>  <Reference>
1. Ustün Alkan F, et al. ScientificWorldJournal. 2012;2012:976740. 

$$$$
T0485
  Mrv1561503291623562D          

 32 36  0  0  1  0            999 V2000
    0.8348   -4.5841    0.0000 C   0  0  1  0  0  0  0  0  0  0  0  0
    1.6557   -4.6657    0.0000 C   0  0  2  0  0  0  0  0  0  0  0  0
    1.9870   -3.9101    0.0000 C   0  0  2  0  0  0  0  0  0  0  0  0
    2.8070   -3.8193    0.0000 C   0  0  1  0  0  0  0  0  0  0  0  0
    3.2957   -4.4840    0.0000 C   0  0  1  0  0  0  0  0  0  0  0  0
    4.1157   -4.3931    0.0000 C   0  0  2  0  0  0  0  0  0  0  0  0
    4.4470   -3.6375    0.0000 C   0  0  0  0  0  0  0  0  0  0  0  0
    5.2669   -3.5467    0.0000 C   0  0  0  0  0  0  0  0  0  0  0  0
    5.7556   -4.2114    0.0000 C   0  0  0  0  0  0  0  0  0  0  0  0
    6.5756   -4.1205    0.0000 O   0  0  0  0  0  0  0  0  0  0  0  0
    5.4243   -4.9669    0.0000 C   0  0  0  0  0  0  0  0  0  0  0  0
    4.6043   -5.0578    0.0000 C   0  0  0  0  0  0  0  0  0  0  0  0
    3.9583   -2.9728    0.0000 C   0  0  0  0  0  0  0  0  0  0  0  0
    3.1383   -3.0637    0.0000 C   0  0  0  0  0  0  0  0  0  0  0  0
    3.7844   -5.1487    0.0000 C   0  0  0  0  0  0  0  0  0  0  0  0
    2.9644   -5.2395    0.0000 C   0  0  2  0  0  0  0  0  0  0  0  0
    2.1444   -5.3304    0.0000 C   0  0  0  0  0  0  0  0  0  0  0  0
    3.4531   -5.9042    0.0000 O   0  0  0  0  0  0  0  0  0  0  0  0
    1.3708   -3.3615    0.0000 C   0  0  0  0  0  0  0  0  0  0  0  0
    0.6587   -3.7781    0.0000 C   0  0  1  0  0  0  0  0  0  0  0  0
   -0.1623   -3.6965    0.0000 O   0  0  0  0  0  0  0  0  0  0  0  0
   -0.4936   -4.4520    0.0000 C   0  0  0  0  0  0  0  0  0  0  0  0
    0.1226   -5.0006    0.0000 N   0  0  0  0  0  0  0  0  0  0  0  0
   -1.2996   -4.6281    0.0000 C   0  0  0  0  0  0  0  0  0  0  0  0
    1.2472   -5.3825    0.0000 C   0  0  0  0  0  0  0  0  0  0  0  0
    0.7532   -5.4050    0.0000 C   0  0  0  0  0  0  0  0  0  0  0  0
    0.0014   -5.7448    0.0000 C   0  0  0  0  0  0  0  0  0  0  0  0
   -0.0802   -6.5658    0.0000 O   0  0  0  0  0  0  0  0  0  0  0  0
   -0.8320   -6.9056    0.0000 C   0  0  0  0  0  0  0  0  0  0  0  0
   -0.9136   -7.7265    0.0000 C   0  0  0  0  0  0  0  0  0  0  0  0
   -1.5022   -6.4244    0.0000 O   0  0  0  0  0  0  0  0  0  0  0  0
    1.4233   -5.8862    0.0000 O   0  0  0  0  0  0  0  0  0  0  0  0
  1  2  1  0  0  0  0
  2  3  1  0  0  0  0
  3  4  1  0  0  0  0
  4  5  1  0  0  0  0
  5  6  1  0  0  0  0
  6  7  1  0  0  0  0
  7  8  2  0  0  0  0
  8  9  1  0  0  0  0
  9 10  2  0  0  0  0
  9 11  1  0  0  0  0
 11 12  2  0  0  0  0
  6 12  1  0  0  0  0
  7 13  1  0  0  0  0
 13 14  1  0  0  0  0
  4 14  1  6  0  0  0
  6 15  1  1  0  0  0
  5 16  1  1  0  0  0
 16 17  1  0  0  0  0
  2 17  1  0  0  0  0
 16 18  1  1  0  0  0
  3 19  1  1  0  0  0
 19 20  1  0  0  0  0
  1 20  1  0  0  0  0
 20 21  1  6  0  0  0
 21 22  1  0  0  0  0
 22 23  2  0  0  0  0
  1 23  1  0  0  0  0
 22 24  1  0  0  0  0
  2 25  1  1  0  0  0
  1 26  1  1  0  0  0
 26 27  1  0  0  0  0
 27 28  1  0  0  0  0
 28 29  1  0  0  0  0
 29 30  1  0  0  0  0
 29 31  2  0  0  0  0
 26 32  2  0  0  0  0
M  END
>  <Name>
Deflazacort

>  <CAS>
14484-47-0

>  <Formula>
C25H31NO6

>  <MolWt>
441.53 

>  <Bioactivity>
Deflazacort is a glucocorticoid used as an anti-inflammatory and immunosuppressant.It suppresses the immune system and so it can be used to treat autoimmune diseases. Deflazacort can help to prevent and to treat the rejection of transplanted organs. It can also be used in the treatment of certain types of cancers. 

>  <Pathways>
Endocrinology/ Hormones

>  <Target>
Glucocorticoid Receptor antagonist

>  <Receptor>
Glucocorticoid Receptor

>  <Reference>
1. Walter MC, et al. Orphanet J Rare Dis. 2013 Feb 14;8:26. 

$$$$
98319-26-7
  Mrv1561503291623562D          

 27 30  0  0  1  0            999 V2000
    0.7475   -2.9779    0.0000 C   0  0  1  0  0  0  0  0  0  0  0  0
    1.5596   -2.8327    0.0000 C   0  0  1  0  0  0  0  0  0  0  0  0
    2.0914   -3.4634    0.0000 C   0  0  1  0  0  0  0  0  0  0  0  0
    2.9035   -3.3182    0.0000 C   0  0  2  0  0  0  0  0  0  0  0  0
    3.1838   -2.5422    0.0000 C   0  0  2  0  0  0  0  0  0  0  0  0
    3.9960   -2.3970    0.0000 N   0  0  0  0  0  0  0  0  0  0  0  0
    4.5278   -3.0277    0.0000 C   0  0  0  0  0  0  0  0  0  0  0  0
    5.3399   -2.8825    0.0000 O   0  0  0  0  0  0  0  0  0  0  0  0
    4.2475   -3.8037    0.0000 C   0  0  0  0  0  0  0  0  0  0  0  0
    3.4354   -3.9489    0.0000 C   0  0  0  0  0  0  0  0  0  0  0  0
    2.6520   -1.9115    0.0000 C   0  0  0  0  0  0  0  0  0  0  0  0
    1.8399   -2.0567    0.0000 C   0  0  0  0  0  0  0  0  0  0  0  0
    2.6232   -4.0941    0.0000 C   0  0  0  0  0  0  0  0  0  0  0  0
    1.8111   -4.2393    0.0000 C   0  0  0  0  0  0  0  0  0  0  0  0
    0.9990   -4.3845    0.0000 C   0  0  0  0  0  0  0  0  0  0  0  0
    0.4672   -3.7538    0.0000 C   0  0  2  0  0  0  0  0  0  0  0  0
   -0.3574   -3.7270    0.0000 C   0  0  1  0  0  0  0  0  0  0  0  0
   -0.8637   -4.3783    0.0000 C   0  0  0  0  0  0  0  0  0  0  0  0
   -1.6810   -4.2655    0.0000 N   0  0  0  0  0  0  0  0  0  0  0  0
   -2.1873   -4.9168    0.0000 C   0  0  0  0  0  0  0  0  0  0  0  0
   -2.6937   -5.5681    0.0000 C   0  0  0  0  0  0  0  0  0  0  0  0
   -2.8387   -4.4105    0.0000 C   0  0  0  0  0  0  0  0  0  0  0  0
   -1.5360   -5.4232    0.0000 C   0  0  0  0  0  0  0  0  0  0  0  0
   -0.5528   -5.1425    0.0000 O   0  0  0  0  0  0  0  0  0  0  0  0
   -0.5867   -2.9345    0.0000 C   0  0  0  0  0  0  0  0  0  0  0  0
    0.0962   -2.4715    0.0000 C   0  0  0  0  0  0  0  0  0  0  0  0
    0.1073   -4.4962    0.0000 C   0  0  0  0  0  0  0  0  0  0  0  0
  1  2  1  0  0  0  0
  2  3  1  0  0  0  0
  3  4  1  0  0  0  0
  4  5  1  0  0  0  0
  5  6  1  1  0  0  0
  6  7  1  0  0  0  0
  7  8  2  0  0  0  0
  7  9  1  0  0  0  0
  9 10  2  0  0  0  0
  4 10  1  0  0  0  0
  5 11  1  0  0  0  0
 11 12  1  0  0  0  0
  2 12  1  6  0  0  0
  4 13  1  1  0  0  0
  3 14  1  1  0  0  0
 14 15  1  0  0  0  0
 15 16  1  0  0  0  0
  1 16  1  0  0  0  0
 16 17  1  0  0  0  0
 17 18  1  1  0  0  0
 18 19  1  0  0  0  0
 19 20  1  0  0  0  0
 20 21  1  0  0  0  0
 20 22  1  0  0  0  0
 20 23  1  0  0  0  0
 18 24  2  0  0  0  0
 17 25  1  0  0  0  0
 25 26  1  0  0  0  0
  1 26  1  1  0  0  0
 16 27  1  1  0  0  0
M  END
>  <Name>
Finasteride

>  <CAS>
98319-26-7

>  <Formula>
C23H36N2O2

>  <MolWt>
372.55 

>  <Bioactivity>
An orally active testosterone 5-alpha-reductase inhibitor. It is used as a surgical alternative for treatment of benign prostatic hyperplasia. 

>  <Pathways>
Enzyme

>  <Target>
Reductase inhibitor

>  <Receptor>
5-? Reductase

>  <Reference>
1. Azzolina B, et al. J Steroid Biochem Mol Biol, 1997, 61(1-2), 55-64.

$$$$
91-33-8
  Mrv1561503291623562D          

 26 28  0  0  0  0            999 V2000
   -0.0000    0.0000    0.0000 C   0  0  0  0  0  0  0  0  0  0  0  0
   -0.7145   -0.4125    0.0000 C   0  0  0  0  0  0  0  0  0  0  0  0
   -1.4289    0.0000    0.0000 Cl  0  0  0  0  0  0  0  0  0  0  0  0
   -0.7145   -1.2375    0.0000 C   0  0  0  0  0  0  0  0  0  0  0  0
   -0.0000   -1.6500    0.0000 C   0  0  0  0  0  0  0  0  0  0  0  0
    0.7145   -1.2375    0.0000 C   0  0  0  0  0  0  0  0  0  0  0  0
    0.7145   -0.4125    0.0000 C   0  0  0  0  0  0  0  0  0  0  0  0
    1.4289    0.0000    0.0000 N   0  0  0  0  0  0  0  0  0  0  0  0
    2.1434   -0.4125    0.0000 C   0  0  0  0  0  0  0  0  0  0  0  0
    2.1434   -1.2375    0.0000 N   0  0  0  0  0  0  0  0  0  0  0  0
    1.4289   -1.6500    0.0000 S   0  0  0  0  0  0  0  0  0  0  0  0
    1.8163   -2.3784    0.0000 O   0  0  0  0  0  0  0  0  0  0  0  0
    1.0416   -2.3784    0.0000 O   0  0  0  0  0  0  0  0  0  0  0  0
    2.8579    0.0000    0.0000 C   0  0  0  0  0  0  0  0  0  0  0  0
    3.5724   -0.4125    0.0000 S   0  0  0  0  0  0  0  0  0  0  0  0
    4.2868   -0.0000    0.0000 C   0  0  0  0  0  0  0  0  0  0  0  0
    5.0013   -0.4125    0.0000 C   0  0  0  0  0  0  0  0  0  0  0  0
    5.7158   -0.0000    0.0000 C   0  0  0  0  0  0  0  0  0  0  0  0
    6.4302   -0.4125    0.0000 C   0  0  0  0  0  0  0  0  0  0  0  0
    6.4302   -1.2375    0.0000 C   0  0  0  0  0  0  0  0  0  0  0  0
    5.7158   -1.6500    0.0000 C   0  0  0  0  0  0  0  0  0  0  0  0
    5.0013   -1.2375    0.0000 C   0  0  0  0  0  0  0  0  0  0  0  0
   -1.4289   -1.6500    0.0000 S   0  0  0  0  0  0  0  0  0  0  0  0
   -2.1434   -2.0625    0.0000 N   0  0  0  0  0  0  0  0  0  0  0  0
   -1.8414   -0.9355    0.0000 O   0  0  0  0  0  0  0  0  0  0  0  0
   -1.0164   -2.3645    0.0000 O   0  0  0  0  0  0  0  0  0  0  0  0
  1  2  2  0  0  0  0
  2  3  1  0  0  0  0
  2  4  1  0  0  0  0
  4  5  2  0  0  0  0
  5  6  1  0  0  0  0
  6  7  2  0  0  0  0
  1  7  1  0  0  0  0
  7  8  1  0  0  0  0
  8  9  1  0  0  0  0
  9 10  2  0  0  0  0
 10 11  1  0  0  0  0
  6 11  1  0  0  0  0
 11 12  2  0  0  0  0
 11 13  2  0  0  0  0
  9 14  1  0  0  0  0
 14 15  1  0  0  0  0
 15 16  1  0  0  0  0
 16 17  1  0  0  0  0
 17 18  2  0  0  0  0
 18 19  1  0  0  0  0
 19 20  2  0  0  0  0
 20 21  1  0  0  0  0
 21 22  2  0  0  0  0
 17 22  1  0  0  0  0
  4 23  1  0  0  0  0
 23 24  1  0  0  0  0
 23 25  2  0  0  0  0
 23 26  2  0  0  0  0
M  END
>  <Name>
Benzthiazide

>  <CAS>
91-33-8

>  <Formula>
C15H14ClN3O4S3

>  <MolWt>
431.94 

>  <Bioactivity>
Benzthiazide is used to treat hypertension and edema. Like other thiazides, benzthiazide promotes water loss from the body (diuretics). They inhibit Na+/Cl- reabsorption from the distal convoluted tubules in the kidneys. Thiazides also cause loss of potassium and an increase in serum uric acid. Thiazides are often used to treat hypertension, but their hypotensive effects are not necessarily due to their diuretic activity. Thiazides have been shown to prevent hypertension-related morbidity and mortality although the mechanism is not fully understood. Thiazides cause vasodilation by activating calcium-activated potassium channels (large conductance) in vascular smooth muscles and inhibiting various carbonic anhydrases in vascular tissue.  

>  <Pathways>
Metabolism

>  <Target>
Carbonic anhydrase inhibitor

>  <Receptor>
CA

>  <Reference>
1. Temperini C, et al. Bioorg Med Chem. 2009 Feb 1;17(3):1214-21.

$$$$
3485-62-9
  Mrv1561503291623562D          

 27 29  0  0  0  0            999 V2000
   -2.3835   -0.0802    0.0000 C   0  0  0  0  0  0  0  0  0  0  0  0
   -3.0979    0.3323    0.0000 C   0  0  0  0  0  0  0  0  0  0  0  0
   -3.0979    1.1573    0.0000 C   0  0  0  0  0  0  0  0  0  0  0  0
   -2.3835    1.5698    0.0000 C   0  0  0  0  0  0  0  0  0  0  0  0
   -1.6690    1.1573    0.0000 C   0  0  0  0  0  0  0  0  0  0  0  0
   -1.6690    0.3323    0.0000 C   0  0  0  0  0  0  0  0  0  0  0  0
   -0.9545   -0.0802    0.0000 C   0  0  0  0  0  0  0  0  0  0  0  0
   -0.2401   -0.4927    0.0000 C   0  0  0  0  0  0  0  0  0  0  0  0
    0.4744   -0.0802    0.0000 O   0  0  0  0  0  0  0  0  0  0  0  0
    1.1889   -0.4927    0.0000 C   0  0  0  0  0  0  0  0  0  0  0  0
    1.9034   -0.0802    0.0000 C   0  0  0  0  0  0  0  0  0  0  0  0
    2.6178   -0.4927    0.0000 C   0  0  0  0  0  0  0  0  0  0  0  0
    2.6178   -1.3177    0.0000 C   0  0  0  0  0  0  0  0  0  0  0  0
    1.9034   -1.7302    0.0000 N   0  3  0  0  0  0  0  0  0  0  0  0
    1.9034   -2.5552    0.0000 C   0  0  0  0  0  0  0  0  0  0  0  0
    2.0409   -1.1802    0.0000 C   0  0  0  0  0  0  0  0  0  0  0  0
    2.0409   -0.6302    0.0000 C   0  0  0  0  0  0  0  0  0  0  0  0
    1.1889   -1.3177    0.0000 C   0  0  0  0  0  0  0  0  0  0  0  0
   -0.2401   -1.3177    0.0000 O   0  0  0  0  0  0  0  0  0  0  0  0
   -1.3670   -0.7946    0.0000 O   0  0  0  0  0  0  0  0  0  0  0  0
   -0.5420    0.6343    0.0000 C   0  0  0  0  0  0  0  0  0  0  0  0
   -0.9545    1.3488    0.0000 C   0  0  0  0  0  0  0  0  0  0  0  0
   -0.5420    2.0633    0.0000 C   0  0  0  0  0  0  0  0  0  0  0  0
    0.2830    2.0633    0.0000 C   0  0  0  0  0  0  0  0  0  0  0  0
    0.6955    1.3488    0.0000 C   0  0  0  0  0  0  0  0  0  0  0  0
    0.2830    0.6343    0.0000 C   0  0  0  0  0  0  0  0  0  0  0  0
    4.9750    0.0000    0.0000 Br  0  5  0  0  0  0  0  0  0  0  0  0
  1  2  2  0  0  0  0
  2  3  1  0  0  0  0
  3  4  2  0  0  0  0
  4  5  1  0  0  0  0
  5  6  2  0  0  0  0
  1  6  1  0  0  0  0
  6  7  1  0  0  0  0
  7  8  1  0  0  0  0
  8  9  1  0  0  0  0
  9 10  1  0  0  0  0
 10 11  1  0  0  0  0
 11 12  1  0  0  0  0
 12 13  1  0  0  0  0
 13 14  1  0  0  0  0
 14 15  1  0  0  0  0
 14 16  1  0  0  0  0
 16 17  1  0  0  0  0
 11 17  1  0  0  0  0
 14 18  1  0  0  0  0
 10 18  1  0  0  0  0
  8 19  2  0  0  0  0
  7 20  1  0  0  0  0
  7 21  1  0  0  0  0
 21 22  2  0  0  0  0
 22 23  1  0  0  0  0
 23 24  2  0  0  0  0
 24 25  1  0  0  0  0
 25 26  2  0  0  0  0
 21 26  1  0  0  0  0
M  CHG  2  14   1  27  -1
M  END
>  <Name>
Clidinium bromide

>  <CAS>
3485-62-9

>  <Formula>
C22H26BrNO3

>  <MolWt>
432.35 

>  <Bioactivity>
Clidinium is a synthetic anticholinergic agent which has been shown in experimental and clinical studies to have a pronounced antispasmodic and antisecretory effect on the gastrointestinal tract. It inhibits muscarinic actions of acetylcholine at postganglionic parasympathetic neuroeffector sites. It is used for the treatment of peptic ulcer disease and also to help relieve abdominal or stomach spasms or cramps due to colicky abdominal pain, diverticulitis, and irritable bowel syndrome. 

>  <Pathways>
Neuroscience

>  <Target>
AChR antagonist

>  <Receptor>
Muscarinic AChR

>  <Reference>
1. Pathak A, et al. J Chromatogr Sci. 2010 Mar;48(3):235-9.

$$$$
968-81-0
  Mrv1561503291623562D          

 22 23  0  0  0  0            999 V2000
   -1.4289   -3.3000    0.0000 C   0  0  0  0  0  0  0  0  0  0  0  0
   -1.4289   -4.1250    0.0000 C   0  0  0  0  0  0  0  0  0  0  0  0
   -2.1434   -4.5375    0.0000 C   0  0  0  0  0  0  0  0  0  0  0  0
   -2.8579   -4.1250    0.0000 C   0  0  0  0  0  0  0  0  0  0  0  0
   -2.8579   -3.3000    0.0000 C   0  0  0  0  0  0  0  0  0  0  0  0
   -2.1434   -2.8875    0.0000 C   0  0  0  0  0  0  0  0  0  0  0  0
   -2.1434   -2.0625    0.0000 S   0  0  0  0  0  0  0  0  0  0  0  0
   -2.1434   -1.2375    0.0000 N   0  0  0  0  0  0  0  0  0  0  0  0
   -2.8579   -0.8250    0.0000 C   0  0  0  0  0  0  0  0  0  0  0  0
   -2.8579    0.0000    0.0000 N   0  0  0  0  0  0  0  0  0  0  0  0
   -3.5724    0.4125    0.0000 C   0  0  0  0  0  0  0  0  0  0  0  0
   -4.2868    0.0000    0.0000 C   0  0  0  0  0  0  0  0  0  0  0  0
   -5.0013    0.4125    0.0000 C   0  0  0  0  0  0  0  0  0  0  0  0
   -5.0013    1.2375    0.0000 C   0  0  0  0  0  0  0  0  0  0  0  0
   -4.2868    1.6500    0.0000 C   0  0  0  0  0  0  0  0  0  0  0  0
   -3.5724    1.2375    0.0000 C   0  0  0  0  0  0  0  0  0  0  0  0
   -3.5724   -1.2375    0.0000 O   0  0  0  0  0  0  0  0  0  0  0  0
   -2.9684   -2.0625    0.0000 O   0  0  0  0  0  0  0  0  0  0  0  0
   -1.3184   -2.0625    0.0000 O   0  0  0  0  0  0  0  0  0  0  0  0
   -2.1434   -5.3625    0.0000 C   0  0  0  0  0  0  0  0  0  0  0  0
   -1.4289   -5.7750    0.0000 C   0  0  0  0  0  0  0  0  0  0  0  0
   -2.8579   -5.7750    0.0000 O   0  0  0  0  0  0  0  0  0  0  0  0
  1  2  2  0  0  0  0
  2  3  1  0  0  0  0
  3  4  2  0  0  0  0
  4  5  1  0  0  0  0
  5  6  2  0  0  0  0
  1  6  1  0  0  0  0
  6  7  1  0  0  0  0
  7  8  1  0  0  0  0
  8  9  1  0  0  0  0
  9 10  1  0  0  0  0
 10 11  1  0  0  0  0
 11 12  1  0  0  0  0
 12 13  1  0  0  0  0
 13 14  1  0  0  0  0
 14 15  1  0  0  0  0
 15 16  1  0  0  0  0
 11 16  1  0  0  0  0
  9 17  2  0  0  0  0
  7 18  2  0  0  0  0
  7 19  2  0  0  0  0
  3 20  1  0  0  0  0
 20 21  1  0  0  0  0
 20 22  2  0  0  0  0
M  END
>  <Name>
Acetohexamide

>  <CAS>
968-81-0

>  <Formula>
C15H20N2O4S

>  <MolWt>
324.40 

>  <Bioactivity>
A sulfonylurea hypoglycemic agent that is metabolized in the liver to 1-hydrohexamide.

>  <Pathways>
Metabolism

>  <Target>
NADPH;Potassium Channel inhibitor

>  <Receptor>
NADPH;Potassium Channel

>  <Reference>
1. Aldawsari H, et al. Int J Pharm. 2013 Sep 10;453(2):315-21.

$$$$
T0820
  Mrv1561503291623562D          

 31 35  0  0  1  0            999 V2000
    0.8348   -4.5841    0.0000 C   0  0  1  0  0  0  0  0  0  0  0  0
    1.6557   -4.6657    0.0000 C   0  0  2  0  0  0  0  0  0  0  0  0
    1.9870   -3.9101    0.0000 C   0  0  2  0  0  0  0  0  0  0  0  0
    2.8070   -3.8193    0.0000 C   0  0  1  0  0  0  0  0  0  0  0  0
    3.2957   -4.4840    0.0000 C   0  0  2  0  0  0  0  0  0  0  0  0
    4.1157   -4.3931    0.0000 C   0  0  2  0  0  0  0  0  0  0  0  0
    4.4470   -3.6375    0.0000 C   0  0  0  0  0  0  0  0  0  0  0  0
    5.2669   -3.5467    0.0000 C   0  0  0  0  0  0  0  0  0  0  0  0
    5.7556   -4.2114    0.0000 C   0  0  0  0  0  0  0  0  0  0  0  0
    6.5756   -4.1205    0.0000 O   0  0  0  0  0  0  0  0  0  0  0  0
    5.4243   -4.9669    0.0000 C   0  0  0  0  0  0  0  0  0  0  0  0
    4.6043   -5.0578    0.0000 C   0  0  0  0  0  0  0  0  0  0  0  0
    3.9583   -2.9728    0.0000 C   0  0  0  0  0  0  0  0  0  0  0  0
    3.1383   -3.0637    0.0000 C   0  0  0  0  0  0  0  0  0  0  0  0
    3.7844   -5.1487    0.0000 C   0  0  0  0  0  0  0  0  0  0  0  0
    3.3003   -5.3089    0.0000 F   0  0  0  0  0  0  0  0  0  0  0  0
    2.9644   -5.2395    0.0000 C   0  0  2  0  0  0  0  0  0  0  0  0
    2.1444   -5.3304    0.0000 C   0  0  0  0  0  0  0  0  0  0  0  0
    3.4531   -5.9042    0.0000 O   0  0  0  0  0  0  0  0  0  0  0  0
    1.3708   -3.3615    0.0000 C   0  0  0  0  0  0  0  0  0  0  0  0
    0.6587   -3.7781    0.0000 C   0  0  1  0  0  0  0  0  0  0  0  0
   -0.1623   -3.6965    0.0000 O   0  0  0  0  0  0  0  0  0  0  0  0
   -0.4936   -4.4520    0.0000 C   0  0  0  0  0  0  0  0  0  0  0  0
    0.1226   -5.0006    0.0000 O   0  0  0  0  0  0  0  0  0  0  0  0
   -1.2822   -4.2097    0.0000 C   0  0  0  0  0  0  0  0  0  0  0  0
   -1.1093   -5.0011    0.0000 C   0  0  0  0  0  0  0  0  0  0  0  0
    1.4887   -5.4736    0.0000 C   0  0  0  0  0  0  0  0  0  0  0  0
    1.0108   -5.3901    0.0000 C   0  0  0  0  0  0  0  0  0  0  0  0
    0.4009   -5.9455    0.0000 C   0  0  0  0  0  0  0  0  0  0  0  0
   -0.3852   -5.6950    0.0000 O   0  0  0  0  0  0  0  0  0  0  0  0
    1.6810   -5.8712    0.0000 O   0  0  0  0  0  0  0  0  0  0  0  0
  1  2  1  0  0  0  0
  2  3  1  0  0  0  0
  3  4  1  0  0  0  0
  4  5  1  0  0  0  0
  5  6  1  0  0  0  0
  6  7  1  0  0  0  0
  7  8  2  0  0  0  0
  8  9  1  0  0  0  0
  9 10  2  0  0  0  0
  9 11  1  0  0  0  0
 11 12  2  0  0  0  0
  6 12  1  0  0  0  0
  7 13  1  0  0  0  0
 13 14  1  0  0  0  0
  4 14  1  6  0  0  0
  6 15  1  1  0  0  0
  5 16  1  6  0  0  0
  5 17  1  0  0  0  0
 17 18  1  0  0  0  0
  2 18  1  0  0  0  0
 17 19  1  1  0  0  0
  3 20  1  1  0  0  0
 20 21  1  0  0  0  0
  1 21  1  0  0  0  0
 21 22  1  6  0  0  0
 22 23  1  0  0  0  0
 23 24  1  0  0  0  0
  1 24  1  0  0  0  0
 23 25  1  0  0  0  0
 23 26  1  0  0  0  0
  2 27  1  1  0  0  0
  1 28  1  1  0  0  0
 28 29  1  0  0  0  0
 29 30  1  0  0  0  0
 28 31  2  0  0  0  0
M  END
>  <Name>
Triamcinolone acetonide

>  <CAS>
76-25-5

>  <Formula>
C24H31FO6

>  <MolWt>
434.50 

>  <Bioactivity>
Triamcinolone acetonide is an antiinflammatory steroid that inhibits the IgE-dependent release of histamine. This is done by human basophils and the growth of NEL-M1 human melanoma cells.

>  <Pathways>
Endocrinology/ Hormones

>  <Target>
Glucocorticoid Receptor agonist

>  <Receptor>
Glucocorticoid Receptor

>  <Reference>
1. Nehme A, et al. BMC Med Genomics. 2009, 2:58. 

$$$$
T0947
  Mrv1561503291623562D          

 31 34  0  0  1  0            999 V2000
    0.7475   -2.9779    0.0000 C   0  0  1  0  0  0  0  0  0  0  0  0
    1.5596   -2.8327    0.0000 C   0  0  1  0  0  0  0  0  0  0  0  0
    2.0914   -3.4634    0.0000 C   0  0  1  0  0  0  0  0  0  0  0  0
    2.9035   -3.3182    0.0000 C   0  0  2  0  0  0  0  0  0  0  0  0
    3.1838   -2.5422    0.0000 C   0  0  0  0  0  0  0  0  0  0  0  0
    3.9960   -2.3970    0.0000 C   0  0  0  0  0  0  0  0  0  0  0  0
    4.5278   -3.0277    0.0000 C   0  0  0  0  0  0  0  0  0  0  0  0
    4.2475   -3.8037    0.0000 C   0  0  0  0  0  0  0  0  0  0  0  0
    3.4354   -3.9489    0.0000 C   0  0  0  0  0  0  0  0  0  0  0  0
    5.3399   -2.8825    0.0000 O   0  0  0  0  0  0  0  0  0  0  0  0
    2.6520   -1.9115    0.0000 C   0  0  0  0  0  0  0  0  0  0  0  0
    1.8399   -2.0567    0.0000 C   0  0  0  0  0  0  0  0  0  0  0  0
    2.6232   -4.0941    0.0000 C   0  0  0  0  0  0  0  0  0  0  0  0
    1.8111   -4.2393    0.0000 C   0  0  2  0  0  0  0  0  0  0  0  0
    0.9990   -4.3845    0.0000 C   0  0  0  0  0  0  0  0  0  0  0  0
    0.4672   -3.7538    0.0000 C   0  0  2  0  0  0  0  0  0  0  0  0
   -0.3574   -3.7270    0.0000 C   0  0  2  0  0  0  0  0  0  0  0  0
   -0.5867   -2.9345    0.0000 C   0  0  1  0  0  0  0  0  0  0  0  0
    0.0962   -2.4715    0.0000 C   0  0  0  0  0  0  0  0  0  0  0  0
   -1.3626   -2.6542    0.0000 C   0  0  0  0  0  0  0  0  0  0  0  0
   -1.1183   -4.0459    0.0000 C   0  0  0  0  0  0  0  0  0  0  0  0
   -1.7749   -3.5464    0.0000 C   0  0  0  0  0  0  0  0  0  0  0  0
   -2.5357   -3.8652    0.0000 O   0  0  0  0  0  0  0  0  0  0  0  0
   -3.1923   -3.3657    0.0000 C   0  0  0  0  0  0  0  0  0  0  0  0
   -3.9532   -3.6846    0.0000 C   0  0  0  0  0  0  0  0  0  0  0  0
   -3.0880   -2.5474    0.0000 O   0  0  0  0  0  0  0  0  0  0  0  0
   -1.2225   -4.8643    0.0000 O   0  0  0  0  0  0  0  0  0  0  0  0
   -0.4788   -4.5430    0.0000 O   0  0  0  0  0  0  0  0  0  0  0  0
    0.1073   -4.4962    0.0000 C   0  0  0  0  0  0  0  0  0  0  0  0
    2.3429   -4.8700    0.0000 O   0  0  0  0  0  0  0  0  0  0  0  0
    2.1510   -4.2862    0.0000 F   0  0  0  0  0  0  0  0  0  0  0  0
  1  2  1  0  0  0  0
  2  3  1  0  0  0  0
  3  4  1  0  0  0  0
  4  5  1  0  0  0  0
  5  6  2  0  0  0  0
  6  7  1  0  0  0  0
  7  8  1  0  0  0  0
  8  9  2  0  0  0  0
  4  9  1  0  0  0  0
  7 10  2  0  0  0  0
  5 11  1  0  0  0  0
 11 12  1  0  0  0  0
  2 12  1  6  0  0  0
  4 13  1  1  0  0  0
  3 14  1  0  0  0  0
 14 15  1  0  0  0  0
 15 16  1  0  0  0  0
  1 16  1  0  0  0  0
 16 17  1  0  0  0  0
 17 18  1  0  0  0  0
 18 19  1  0  0  0  0
  1 19  1  1  0  0  0
 18 20  1  6  0  0  0
 17 21  1  1  0  0  0
 21 22  1  0  0  0  0
 22 23  1  0  0  0  0
 23 24  1  0  0  0  0
 24 25  1  0  0  0  0
 24 26  2  0  0  0  0
 21 27  2  0  0  0  0
 17 28  1  6  0  0  0
 16 29  1  1  0  0  0
 14 30  1  1  0  0  0
  3 31  1  6  0  0  0
M  END
>  <Name>
Dexamethason acetate

>  <CAS>
1177-87-3

>  <Formula>
C24H31FO6

>  <MolWt>
434.51 

>  <Bioactivity>
Dexamethasone is a potent synthetic member of the glucocorticoid class of steroid drugs that has anti-inflammatory and immunosuppressant properties.

>  <Pathways>
Endocrinology/ Hormones; Immunology/Inflammation

>  <Target>
NOS negative modulator;IL receptor; Annexin A; Glucocorticoid Receptor agonist

>  <Receptor>
iNOS;IL receptor;Annexin A1; Glucocorticoid Receptor

>  <Reference>
1. Funato H, et al. Brain Res. 2006 Oct 30;1117(1):125-34. 

$$$$
50-34-0
  Mrv1561503291623562D          

 28 29  0  0  0  0            999 V2000
    1.8401   -0.9625    0.0000 C   0  0  0  0  0  0  0  0  0  0  0  0
    2.5545   -1.3750    0.0000 C   0  0  0  0  0  0  0  0  0  0  0  0
    2.5545   -2.2000    0.0000 C   0  0  0  0  0  0  0  0  0  0  0  0
    1.8401   -2.6125    0.0000 C   0  0  0  0  0  0  0  0  0  0  0  0
    1.1256   -2.2000    0.0000 C   0  0  0  0  0  0  0  0  0  0  0  0
    1.1256   -1.3750    0.0000 C   0  0  0  0  0  0  0  0  0  0  0  0
    0.4111   -0.9625    0.0000 C   0  0  0  0  0  0  0  0  0  0  0  0
   -0.3034   -1.3750    0.0000 C   0  0  0  0  0  0  0  0  0  0  0  0
   -0.3034   -2.2000    0.0000 C   0  0  0  0  0  0  0  0  0  0  0  0
   -1.0178   -2.6125    0.0000 C   0  0  0  0  0  0  0  0  0  0  0  0
   -1.7323   -2.2000    0.0000 C   0  0  0  0  0  0  0  0  0  0  0  0
   -1.7323   -1.3750    0.0000 C   0  0  0  0  0  0  0  0  0  0  0  0
   -1.0178   -0.9625    0.0000 C   0  0  0  0  0  0  0  0  0  0  0  0
    0.4111   -2.6125    0.0000 O   0  0  0  0  0  0  0  0  0  0  0  0
    0.4111   -0.1375    0.0000 C   0  0  0  0  0  0  0  0  0  0  0  0
   -0.3034    0.2750    0.0000 O   0  0  0  0  0  0  0  0  0  0  0  0
   -0.3034    1.1000    0.0000 C   0  0  0  0  0  0  0  0  0  0  0  0
   -1.0178    1.5125    0.0000 C   0  0  0  0  0  0  0  0  0  0  0  0
   -1.0178    2.3375    0.0000 N   0  3  0  0  0  0  0  0  0  0  0  0
   -1.0178    3.1625    0.0000 C   0  0  0  0  0  0  0  0  0  0  0  0
   -1.7323    3.5750    0.0000 C   0  0  0  0  0  0  0  0  0  0  0  0
   -0.3034    3.5750    0.0000 C   0  0  0  0  0  0  0  0  0  0  0  0
   -0.1928    2.3375    0.0000 C   0  0  0  0  0  0  0  0  0  0  0  0
    0.2197    3.0520    0.0000 C   0  0  0  0  0  0  0  0  0  0  0  0
    0.2197    1.6230    0.0000 C   0  0  0  0  0  0  0  0  0  0  0  0
   -1.8428    2.3375    0.0000 C   0  0  0  0  0  0  0  0  0  0  0  0
    1.1256    0.2750    0.0000 O   0  0  0  0  0  0  0  0  0  0  0  0
    4.9117    0.0000    0.0000 Br  0  5  0  0  0  0  0  0  0  0  0  0
  1  2  2  0  0  0  0
  2  3  1  0  0  0  0
  3  4  2  0  0  0  0
  4  5  1  0  0  0  0
  5  6  2  0  0  0  0
  1  6  1  0  0  0  0
  6  7  1  0  0  0  0
  7  8  1  0  0  0  0
  8  9  2  0  0  0  0
  9 10  1  0  0  0  0
 10 11  2  0  0  0  0
 11 12  1  0  0  0  0
 12 13  2  0  0  0  0
  8 13  1  0  0  0  0
  9 14  1  0  0  0  0
  5 14  1  0  0  0  0
  7 15  1  0  0  0  0
 15 16  1  0  0  0  0
 16 17  1  0  0  0  0
 17 18  1  0  0  0  0
 18 19  1  0  0  0  0
 19 20  1  0  0  0  0
 20 21  1  0  0  0  0
 20 22  1  0  0  0  0
 19 23  1  0  0  0  0
 23 24  1  0  0  0  0
 23 25  1  0  0  0  0
 19 26  1  0  0  0  0
 15 27  2  0  0  0  0
M  CHG  2  19   1  28  -1
M  END
>  <Name>
Propantheline bromide

>  <CAS>
50-34-0

>  <Formula>
C23H30BrNO3

>  <MolWt>
448.40 

>  <Bioactivity>
A muscarinic antagonist used as an antispasmodic, in rhinitis, in urinary incontinence, and in the treatment of ulcers. At high doses it has nicotinic effects resulting in neuromuscular blocking.

>  <Pathways>
Neuroscience

>  <Target>
AChR antagonist

>  <Receptor>
Muscarinic AChR

>  <Reference>
1. Saitoh H, et al. J Pharmacobiodyn. 1986 Dec; 9(12):1008-14. 

$$$$
138530-94-6
  Mrv1561503291623562D          

 25 27  0  0  1  0            999 V2000
   -1.4534   -0.6979    0.0000 S   0  0  1  0  0  0  0  0  0  0  0  0
   -1.8659    0.0165    0.0000 O   0  0  0  0  0  0  0  0  0  0  0  0
   -0.6284   -0.6979    0.0000 C   0  0  0  0  0  0  0  0  0  0  0  0
   -0.1435   -1.3654    0.0000 N   0  0  0  0  0  0  0  0  0  0  0  0
    0.6411   -1.1104    0.0000 C   0  0  0  0  0  0  0  0  0  0  0  0
    0.6411   -0.2854    0.0000 C   0  0  0  0  0  0  0  0  0  0  0  0
   -0.1435   -0.0305    0.0000 N   0  0  0  0  0  0  0  0  0  0  0  0
    1.3556    0.1271    0.0000 C   0  0  0  0  0  0  0  0  0  0  0  0
    2.0701   -0.2854    0.0000 C   0  0  0  0  0  0  0  0  0  0  0  0
    2.0701   -1.1104    0.0000 C   0  0  0  0  0  0  0  0  0  0  0  0
    1.3556   -1.5229    0.0000 C   0  0  0  0  0  0  0  0  0  0  0  0
   -1.8659   -1.4124    0.0000 C   0  0  0  0  0  0  0  0  0  0  0  0
   -2.6909   -1.4124    0.0000 C   0  0  0  0  0  0  0  0  0  0  0  0
   -3.1034   -2.1269    0.0000 C   0  0  0  0  0  0  0  0  0  0  0  0
   -3.9284   -2.1269    0.0000 C   0  0  0  0  0  0  0  0  0  0  0  0
   -4.3409   -1.4124    0.0000 C   0  0  0  0  0  0  0  0  0  0  0  0
   -3.9284   -0.6979    0.0000 C   0  0  0  0  0  0  0  0  0  0  0  0
   -3.1034   -0.6979    0.0000 N   0  0  0  0  0  0  0  0  0  0  0  0
   -4.3409   -2.8414    0.0000 O   0  0  0  0  0  0  0  0  0  0  0  0
   -5.1659   -2.8414    0.0000 C   0  0  0  0  0  0  0  0  0  0  0  0
   -5.5784   -3.5558    0.0000 C   0  0  0  0  0  0  0  0  0  0  0  0
   -5.9909   -4.2703    0.0000 F   0  0  0  0  0  0  0  0  0  0  0  0
   -6.2929   -3.1433    0.0000 F   0  0  0  0  0  0  0  0  0  0  0  0
   -4.8640   -3.9683    0.0000 F   0  0  0  0  0  0  0  0  0  0  0  0
   -2.6909   -2.8414    0.0000 C   0  0  0  0  0  0  0  0  0  0  0  0
  1  2  2  0  0  0  0
  1  3  1  0  0  0  0
  3  4  2  0  0  0  0
  4  5  1  0  0  0  0
  5  6  2  0  0  0  0
  6  7  1  0  0  0  0
  3  7  1  0  0  0  0
  6  8  1  0  0  0  0
  8  9  2  0  0  0  0
  9 10  1  0  0  0  0
 10 11  2  0  0  0  0
  5 11  1  0  0  0  0
  1 12  1  1  0  0  0
 12 13  1  0  0  0  0
 13 14  2  0  0  0  0
 14 15  1  0  0  0  0
 15 16  2  0  0  0  0
 16 17  1  0  0  0  0
 17 18  2  0  0  0  0
 13 18  1  0  0  0  0
 15 19  1  0  0  0  0
 19 20  1  0  0  0  0
 20 21  1  0  0  0  0
 21 22  1  0  0  0  0
 21 23  1  0  0  0  0
 21 24  1  0  0  0  0
 14 25  1  0  0  0  0
M  END
>  <Name>
R-(+)-Lansoprazole

>  <CAS>
138530-94-6

>  <Formula>
C16H14F3N3O2S

>  <MolWt>
369.36 

>  <Bioactivity>
Dexlansoprazole is a Proton Pump Inhibitor. 

>  <Pathways>
Membrane Transporter/Ion Channel

>  <Target>
Proton Pump inhibitor

>  <Receptor>
Proton Pump

>  <Reference>
1. Metz DC, et al. Aliment Pharmacol Ther, 2009, 29(9), 928-937.

$$$$
T1163
  Mrv1561503291623562D          

 34 37  0  0  1  0            999 V2000
    0.9380   -2.7880    0.0000 C   0  0  2  0  0  0  0  0  0  0  0  0
    0.6104   -3.5451    0.0000 C   0  0  1  0  0  0  0  0  0  0  0  0
   -0.2110   -3.4675    0.0000 C   0  0  1  0  0  0  0  0  0  0  0  0
   -0.7565   -4.0863    0.0000 C   0  0  0  0  0  0  0  0  0  0  0  0
   -0.3909   -2.6623    0.0000 C   0  0  0  0  0  0  0  0  0  0  0  0
    0.3192   -2.2424    0.0000 C   0  0  1  0  0  0  0  0  0  0  0  0
    0.4823   -1.4337    0.0000 C   0  0  1  0  0  0  0  0  0  0  0  0
    1.2642   -1.1705    0.0000 C   0  0  2  0  0  0  0  0  0  0  0  0
    1.4272   -0.3618    0.0000 C   0  0  2  0  0  0  0  0  0  0  0  0
    0.8084    0.1838    0.0000 C   0  0  0  0  0  0  0  0  0  0  0  0
    0.9715    0.9925    0.0000 C   0  0  0  0  0  0  0  0  0  0  0  0
    1.7534    1.2557    0.0000 C   0  0  0  0  0  0  0  0  0  0  0  0
    1.9164    2.0644    0.0000 O   0  0  0  0  0  0  0  0  0  0  0  0
    2.3722    0.7101    0.0000 C   0  0  0  0  0  0  0  0  0  0  0  0
    2.2091   -0.0987    0.0000 C   0  0  0  0  0  0  0  0  0  0  0  0
    0.0265   -0.0794    0.0000 C   0  0  0  0  0  0  0  0  0  0  0  0
   -0.1366   -0.8881    0.0000 C   0  0  0  0  0  0  0  0  0  0  0  0
    2.0461   -0.9074    0.0000 C   0  0  0  0  0  0  0  0  0  0  0  0
    2.0514   -1.4172    0.0000 F   0  0  0  0  0  0  0  0  0  0  0  0
    1.8830   -1.7161    0.0000 C   0  0  2  0  0  0  0  0  0  0  0  0
    1.7199   -2.5248    0.0000 C   0  0  0  0  0  0  0  0  0  0  0  0
    2.6649   -1.4530    0.0000 O   0  0  0  0  0  0  0  0  0  0  0  0
    1.3249   -3.9576    0.0000 O   0  0  0  0  0  0  0  0  0  0  0  0
    2.0393   -3.5451    0.0000 C   0  0  0  0  0  0  0  0  0  0  0  0
    2.7538   -3.9576    0.0000 C   0  0  0  0  0  0  0  0  0  0  0  0
    3.4683   -3.5451    0.0000 C   0  0  0  0  0  0  0  0  0  0  0  0
    4.1827   -3.9576    0.0000 C   0  0  0  0  0  0  0  0  0  0  0  0
    4.8972   -3.5451    0.0000 C   0  0  0  0  0  0  0  0  0  0  0  0
    2.0393   -2.7201    0.0000 O   0  0  0  0  0  0  0  0  0  0  0  0
    0.6277   -4.3699    0.0000 C   0  0  0  0  0  0  0  0  0  0  0  0
   -0.0780   -4.7973    0.0000 C   0  0  0  0  0  0  0  0  0  0  0  0
   -0.0607   -5.6221    0.0000 O   0  0  0  0  0  0  0  0  0  0  0  0
    1.3506   -4.7674    0.0000 O   0  0  0  0  0  0  0  0  0  0  0  0
    1.4965   -3.3952    0.0000 C   0  0  0  0  0  0  0  0  0  0  0  0
  1  2  1  0  0  0  0
  2  3  1  0  0  0  0
  3  4  1  1  0  0  0
  3  5  1  0  0  0  0
  6  5  1  1  0  0  0
  1  6  1  0  0  0  0
  6  7  1  0  0  0  0
  7  8  1  0  0  0  0
  8  9  1  0  0  0  0
  9 10  1  0  0  0  0
 10 11  2  0  0  0  0
 11 12  1  0  0  0  0
 12 13  2  0  0  0  0
 12 14  1  0  0  0  0
 14 15  2  0  0  0  0
  9 15  1  0  0  0  0
 10 16  1  0  0  0  0
 16 17  1  0  0  0  0
  7 17  1  6  0  0  0
  9 18  1  1  0  0  0
  8 19  1  6  0  0  0
  8 20  1  0  0  0  0
 20 21  1  0  0  0  0
  1 21  1  0  0  0  0
 20 22  1  1  0  0  0
  2 23  1  6  0  0  0
 23 24  1  0  0  0  0
 24 25  1  0  0  0  0
 25 26  1  0  0  0  0
 26 27  1  0  0  0  0
 27 28  1  0  0  0  0
 24 29  2  0  0  0  0
  2 30  1  1  0  0  0
 30 31  1  0  0  0  0
 31 32  1  0  0  0  0
 30 33  2  0  0  0  0
  1 34  1  1  0  0  0
M  END
>  <Name>
Betamethasone 17-valerate

>  <CAS>
2152-44-5

>  <Formula>
C27H37FO6

>  <MolWt>
476.59 

>  <Bioactivity>
Betamethasone Valerate is a moderately potent glucocorticoid steroid with anti-inflammatory and immunosuppressive properties.

>  <Pathways>
Endocrinology/ Hormones

>  <Target>
Glucocorticoid Receptor agonist

>  <Receptor>
Glucocorticoid Receptor

>  <Reference>
1. Ortonne JP, et al. J Eur Acad Dermatol Venereol. 2014 Sep;28(9):1226-34.

$$$$
427-51-0
  Mrv1561503291623562D          

 29 33  0  0  1  0            999 V2000
    4.7796    0.9479    0.0000 C   0  0  1  0  0  0  0  0  0  0  0  0
    5.4467    0.4626    0.0000 C   0  0  2  0  0  0  0  0  0  0  0  0
    6.2006    0.7977    0.0000 C   0  0  2  0  0  0  0  0  0  0  0  0
    6.2873    1.6181    0.0000 C   0  0  0  0  0  0  0  0  0  0  0  0
    7.0412    1.9532    0.0000 O   0  0  0  0  0  0  0  0  0  0  0  0
    5.6202    2.1034    0.0000 C   0  0  0  0  0  0  0  0  0  0  0  0
    4.8663    1.7683    0.0000 C   0  0  0  0  0  0  0  0  0  0  0  0
    4.1992    2.2537    0.0000 C   0  0  0  0  0  0  0  0  0  0  0  0
    3.4453    1.9186    0.0000 C   0  0  0  0  0  0  0  0  0  0  0  0
    3.3586    1.0981    0.0000 C   0  0  2  0  0  0  0  0  0  0  0  0
    4.0257    0.6128    0.0000 C   0  0  2  0  0  0  0  0  0  0  0  0
    3.9390   -0.2076    0.0000 C   0  0  0  0  0  0  0  0  0  0  0  0
    3.1851   -0.5427    0.0000 C   0  0  0  0  0  0  0  0  0  0  0  0
    2.5179   -0.0574    0.0000 C   0  0  1  0  0  0  0  0  0  0  0  0
    2.6047    0.7630    0.0000 C   0  0  1  0  0  0  0  0  0  0  0  0
    1.8512    1.0990    0.0000 C   0  0  0  0  0  0  0  0  0  0  0  0
    1.2988    0.4863    0.0000 C   0  0  0  0  0  0  0  0  0  0  0  0
    1.7109   -0.2284    0.0000 C   0  0  1  0  0  0  0  0  0  0  0  0
    1.0482   -0.7199    0.0000 O   0  0  0  0  0  0  0  0  0  0  0  0
    0.2913   -0.3918    0.0000 C   0  0  0  0  0  0  0  0  0  0  0  0
   -0.3713   -0.8833    0.0000 C   0  0  0  0  0  0  0  0  0  0  0  0
    0.1970    0.4278    0.0000 O   0  0  0  0  0  0  0  0  0  0  0  0
    1.7880   -1.0498    0.0000 C   0  0  0  0  0  0  0  0  0  0  0  0
    2.5379   -1.3937    0.0000 C   0  0  0  0  0  0  0  0  0  0  0  0
    1.1152   -1.5273    0.0000 O   0  0  0  0  0  0  0  0  0  0  0  0
    2.3459   -0.8643    0.0000 C   0  0  0  0  0  0  0  0  0  0  0  0
    4.2859    3.0741    0.0000 Cl  0  0  0  0  0  0  0  0  0  0  0  0
    6.1139   -0.0228    0.0000 C   0  0  0  0  0  0  0  0  0  0  0  0
    4.6928    0.1275    0.0000 C   0  0  0  0  0  0  0  0  0  0  0  0
  1  2  1  0  0  0  0
  2  3  1  0  0  0  0
  3  4  1  0  0  0  0
  4  5  2  0  0  0  0
  4  6  1  0  0  0  0
  6  7  2  0  0  0  0
  1  7  1  0  0  0  0
  7  8  1  0  0  0  0
  8  9  2  0  0  0  0
 10  9  1  6  0  0  0
 10 11  1  0  0  0  0
  1 11  1  0  0  0  0
 11 12  1  1  0  0  0
 12 13  1  0  0  0  0
 13 14  1  0  0  0  0
 14 15  1  0  0  0  0
 10 15  1  0  0  0  0
 15 16  1  1  0  0  0
 16 17  1  0  0  0  0
 17 18  1  0  0  0  0
 14 18  1  0  0  0  0
 18 19  1  6  0  0  0
 19 20  1  0  0  0  0
 20 21  1  0  0  0  0
 20 22  2  0  0  0  0
 18 23  1  1  0  0  0
 23 24  1  0  0  0  0
 23 25  2  0  0  0  0
 14 26  1  1  0  0  0
  8 27  1  0  0  0  0
  3 28  1  6  0  0  0
  2 28  1  6  0  0  0
  1 29  1  1  0  0  0
M  END
>  <Name>
Cyproterone acetate

>  <CAS>
427-51-0

>  <Formula>
C24H29ClO4

>  <MolWt>
416.94 

>  <Bioactivity>
An agent with anti-androgen and progestational properties. It shows competitive binding with dihydrotestosterone at androgen receptor sites

>  <Pathways>
Endocrinology/ Hormones

>  <Target>
Androgen Receptor antagonist

>  <Receptor>
Androgen Receptor

>  <Reference>
1. Sonneveld E, et al. Toxicol Sci. 2005, 83(1), 136-148.

$$$$
T1171
  Mrv1561503291623562D          

 27 30  0  0  1  0            999 V2000
    2.8705    0.0722    0.0000 C   0  0  1  0  0  0  0  0  0  0  0  0
    3.6826    0.2174    0.0000 C   0  0  1  0  0  0  0  0  0  0  0  0
    3.9629    0.9934    0.0000 C   0  0  1  0  0  0  0  0  0  0  0  0
    4.7875    0.9666    0.0000 C   0  0  2  0  0  0  0  0  0  0  0  0
    5.5996    1.1118    0.0000 C   0  0  0  0  0  0  0  0  0  0  0  0
    6.1315    0.4811    0.0000 C   0  0  0  0  0  0  0  0  0  0  0  0
    6.9436    0.6263    0.0000 O   0  0  0  0  0  0  0  0  0  0  0  0
    5.8799    1.8877    0.0000 O   0  0  0  0  0  0  0  0  0  0  0  0
    4.7280    1.7894    0.0000 O   0  0  0  0  0  0  0  0  0  0  0  0
    5.0168    0.1741    0.0000 C   0  0  0  0  0  0  0  0  0  0  0  0
    4.3340   -0.2889    0.0000 C   0  0  0  0  0  0  0  0  0  0  0  0
    3.4311    1.6241    0.0000 C   0  0  0  0  0  0  0  0  0  0  0  0
    2.6190    1.4789    0.0000 C   0  0  1  0  0  0  0  0  0  0  0  0
    2.3387    0.7029    0.0000 C   0  0  2  0  0  0  0  0  0  0  0  0
    1.5266    0.5577    0.0000 C   0  0  2  0  0  0  0  0  0  0  0  0
    1.2463   -0.2182    0.0000 C   0  0  0  0  0  0  0  0  0  0  0  0
    0.4342   -0.3634    0.0000 C   0  0  0  0  0  0  0  0  0  0  0  0
   -0.0976    0.2673    0.0000 C   0  0  0  0  0  0  0  0  0  0  0  0
   -0.9098    0.1221    0.0000 O   0  0  0  0  0  0  0  0  0  0  0  0
    0.1827    1.0432    0.0000 C   0  0  0  0  0  0  0  0  0  0  0  0
    0.9948    1.1884    0.0000 C   0  0  0  0  0  0  0  0  0  0  0  0
    1.7781   -0.8489    0.0000 C   0  0  2  0  0  0  0  0  0  0  0  0
    2.5902   -0.7037    0.0000 C   0  0  0  0  0  0  0  0  0  0  0  0
    1.4978   -1.6248    0.0000 C   0  0  0  0  0  0  0  0  0  0  0  0
    1.8069    1.3336    0.0000 C   0  0  0  0  0  0  0  0  0  0  0  0
    2.0872    2.1096    0.0000 O   0  0  0  0  0  0  0  0  0  0  0  0
    4.3228    1.7357    0.0000 C   0  0  0  0  0  0  0  0  0  0  0  0
  1  2  1  0  0  0  0
  2  3  1  0  0  0  0
  3  4  1  0  0  0  0
  4  5  1  1  0  0  0
  5  6  1  0  0  0  0
  6  7  1  0  0  0  0
  5  8  2  0  0  0  0
  4  9  1  6  0  0  0
  4 10  1  0  0  0  0
 10 11  1  0  0  0  0
  2 11  1  1  0  0  0
  3 12  1  0  0  0  0
 12 13  1  0  0  0  0
 13 14  1  0  0  0  0
  1 14  1  0  0  0  0
 14 15  1  1  0  0  0
 15 16  1  0  0  0  0
 16 17  2  0  0  0  0
 17 18  1  0  0  0  0
 18 19  2  0  0  0  0
 18 20  1  0  0  0  0
 20 21  2  0  0  0  0
 15 21  1  0  0  0  0
 16 22  1  0  0  0  0
 22 23  1  0  0  0  0
  1 23  1  6  0  0  0
 22 24  1  6  0  0  0
 15 25  1  1  0  0  0
 13 26  1  1  0  0  0
  3 27  1  1  0  0  0
M  END
>  <Name>
Methylprednisolone

>  <CAS>
83-43-2

>  <Formula>
C22H30O5

>  <MolWt>
374.48 

>  <Bioactivity>
Methylprednisolone is a synthetic corticosteroid with anti-inflammatory and immunomodulating properties.

>  <Pathways>
Endocrinology/ Hormones

>  <Target>
Glucocorticoid Receptor agonist

>  <Receptor>
Glucocorticoid Receptor

>  <Reference>
1. Owen HC, et al. Mol Cell Endocrinol. 2007 Jan 29;264(1-2):164-70. 

$$$$
105826-92-4
  Mrv1561503291623562D          

 23 24  0  0  1  0            999 V2000
   -2.1987   -1.4853    0.0000 C   0  0  0  0  0  0  0  0  0  0  0  0
   -1.3888   -1.9921    0.0000 N   0  0  0  0  0  0  0  0  0  0  0  0
   -0.4357   -2.0581    0.0000 C   0  0  0  0  0  0  0  0  0  0  0  0
   -1.1242   -2.5126    0.0000 C   0  0  0  0  0  0  0  0  0  0  0  0
   -1.9088   -2.2577    0.0000 C   0  0  0  0  0  0  0  0  0  0  0  0
   -0.3617   -1.2364    0.0000 C   0  0  0  0  0  0  0  0  0  0  0  0
   -0.9581   -0.6663    0.0000 C   0  0  0  0  0  0  0  0  0  0  0  0
   -0.7031    0.1183    0.0000 O   0  0  0  0  0  0  0  0  0  0  0  0
    0.1039    0.2899    0.0000 C   0  0  0  0  0  0  0  0  0  0  0  0
    0.6559   -0.3232    0.0000 O   0  0  0  0  0  0  0  0  0  0  0  0
    0.3588    1.0745    0.0000 C   0  0  0  0  0  0  0  0  0  0  0  0
   -0.1261    1.7419    0.0000 C   0  0  0  0  0  0  0  0  0  0  0  0
    0.3588    2.4093    0.0000 N   0  0  0  0  0  0  0  0  0  0  0  0
    1.1434    2.1544    0.0000 C   0  0  0  0  0  0  0  0  0  0  0  0
    1.8579    2.5669    0.0000 C   0  0  0  0  0  0  0  0  0  0  0  0
    2.5724    2.1544    0.0000 C   0  0  0  0  0  0  0  0  0  0  0  0
    2.5724    1.3294    0.0000 C   0  0  0  0  0  0  0  0  0  0  0  0
    1.8579    0.9169    0.0000 C   0  0  0  0  0  0  0  0  0  0  0  0
    1.1434    1.3294    0.0000 C   0  0  0  0  0  0  0  0  0  0  0  0
   -1.7756   -0.7770    0.0000 C   0  0  0  0  0  0  0  0  0  0  0  0
   -1.6438   -2.7767    0.0000 C   0  0  0  0  0  0  0  0  0  0  0  0
    5.7545    0.0000    0.0000 H   0  3  0  0  0  0  0  0  0  0  0  0
    4.9295    0.0000    0.0000 Cl  0  5  0  0  0  0  0  0  0  0  0  0
  1  2  1  0  0  0  0
  2  3  1  0  0  0  0
  3  4  1  0  0  0  0
  4  5  1  0  0  0  0
  1  5  1  0  0  0  0
  3  6  1  0  0  0  0
  6  7  1  0  0  0  0
  7  8  1  0  0  0  0
  8  9  1  0  0  0  0
  9 10  2  0  0  0  0
  9 11  1  0  0  0  0
 11 12  2  0  0  0  0
 12 13  1  0  0  0  0
 13 14  1  0  0  0  0
 14 15  2  0  0  0  0
 15 16  1  0  0  0  0
 16 17  2  0  0  0  0
 17 18  1  0  0  0  0
 18 19  2  0  0  0  0
 11 19  1  0  0  0  0
 14 19  1  0  0  0  0
  7 20  1  0  0  0  0
  1 20  1  0  0  0  0
  2 21  1  0  0  0  0
M  CHG  2  22   1  23  -1
M  END
>  <Name>
Tropisetron HCl

>  <CAS>
105826-92-4

>  <Formula>
C17H21ClN2O2

>  <MolWt>
320.82 

>  <Bioactivity>
Tropisetron is a selective 5-HT3 receptor antagonist and ?7-nicotinic receptor agonist.

>  <Pathways>
Neuroscience

>  <Target>
5-HT Receptor antagonist

>  <Receptor>
5-HT Receptor

>  <Reference>
1. Zirak MR, et al. Eur J Pharmacol. 2014 Sep 5;738:222-9. 

$$$$
4093-35-0
  Mrv1561503291623562D          

 24 20  0  0  0  0            999 V2000
    0.4125    0.0000    0.0000 H   0  3  0  0  0  0  0  0  0  0  0  0
    3.5946    0.0000    0.0000 H   0  3  0  0  0  0  0  0  0  0  0  0
   -1.2581   -3.0789    0.0000 C   0  0  0  0  0  0  0  0  0  0  0  0
   -0.8456   -3.7934    0.0000 C   0  0  0  0  0  0  0  0  0  0  0  0
   -0.0206   -3.7934    0.0000 C   0  0  0  0  0  0  0  0  0  0  0  0
    0.3919   -4.5079    0.0000 O   0  0  0  0  0  0  0  0  0  0  0  0
    0.3919   -3.0789    0.0000 N   0  0  0  0  0  0  0  0  0  0  0  0
    1.2169   -3.0789    0.0000 C   0  0  0  0  0  0  0  0  0  0  0  0
    1.6294   -2.3645    0.0000 C   0  0  0  0  0  0  0  0  0  0  0  0
    2.4544   -2.3645    0.0000 N   0  0  0  0  0  0  0  0  0  0  0  0
    2.8669   -1.6500    0.0000 C   0  0  0  0  0  0  0  0  0  0  0  0
    3.6919   -1.6500    0.0000 C   0  0  0  0  0  0  0  0  0  0  0  0
    2.8669   -3.0789    0.0000 C   0  0  0  0  0  0  0  0  0  0  0  0
    2.4544   -3.7934    0.0000 C   0  0  0  0  0  0  0  0  0  0  0  0
   -1.2581   -4.5079    0.0000 C   0  0  0  0  0  0  0  0  0  0  0  0
   -2.0831   -4.5079    0.0000 C   0  0  0  0  0  0  0  0  0  0  0  0
   -2.4956   -3.7934    0.0000 C   0  0  0  0  0  0  0  0  0  0  0  0
   -2.0831   -3.0789    0.0000 C   0  0  0  0  0  0  0  0  0  0  0  0
   -2.4956   -2.3645    0.0000 Br  0  0  0  0  0  0  0  0  0  0  0  0
   -3.3206   -3.7934    0.0000 N   0  0  0  0  0  0  0  0  0  0  0  0
   -0.8456   -5.2224    0.0000 O   0  0  0  0  0  0  0  0  0  0  0  0
   -1.2581   -5.9368    0.0000 C   0  0  0  0  0  0  0  0  0  0  0  0
   -0.4125    0.0000    0.0000 Cl  0  5  0  0  0  0  0  0  0  0  0  0
    2.7696    0.0000    0.0000 Cl  0  5  0  0  0  0  0  0  0  0  0  0
  3  4  2  0  0  0  0
  4  5  1  0  0  0  0
  5  6  2  0  0  0  0
  5  7  1  0  0  0  0
  7  8  1  0  0  0  0
  8  9  1  0  0  0  0
  9 10  1  0  0  0  0
 10 11  1  0  0  0  0
 11 12  1  0  0  0  0
 10 13  1  0  0  0  0
 13 14  1  0  0  0  0
  4 15  1  0  0  0  0
 15 16  2  0  0  0  0
 16 17  1  0  0  0  0
 17 18  2  0  0  0  0
  3 18  1  0  0  0  0
 18 19  1  0  0  0  0
 17 20  1  0  0  0  0
 15 21  1  0  0  0  0
 21 22  1  0  0  0  0
M  CHG  4   1   1   2   1  23  -1  24  -1
M  END
>  <Name>
Bromopride

>  <CAS>
4093-35-0

>  <Formula>
C14H22BrN3O2

>  <MolWt>
344.25 

>  <Bioactivity>
Bromopride is a dopamine antagonist with prokinetic properties closely related to metoclopramide, and is widely used as an antiemetic. It is not available in the United States or the United Kingdom. 

>  <Pathways>
Neuroscience

>  <Target>
Dopamine Receptor antagonist

>  <Receptor>
Dopamine receptor

>  <Reference>
1. Tonini M, et al. Aliment Pharmacol Ther. 2004 Feb 15;19(4):379-90.

$$$$
T1177
  Mrv1561503291623562D          

 21 23  0  0  0  0            999 V2000
   -0.0000    0.0000    0.0000 C   0  0  0  0  0  0  0  0  0  0  0  0
   -0.7145   -0.4125    0.0000 C   0  0  0  0  0  0  0  0  0  0  0  0
   -0.7145   -1.2375    0.0000 C   0  0  0  0  0  0  0  0  0  0  0  0
   -0.0000   -1.6500    0.0000 C   0  0  0  0  0  0  0  0  0  0  0  0
    0.7145   -1.2375    0.0000 C   0  0  0  0  0  0  0  0  0  0  0  0
    0.7145   -0.4125    0.0000 C   0  0  0  0  0  0  0  0  0  0  0  0
    1.4289    0.0000    0.0000 N   0  0  0  0  0  0  0  0  0  0  0  0
    2.1434   -0.4125    0.0000 C   0  0  0  0  0  0  0  0  0  0  0  0
    2.1434   -1.2375    0.0000 C   0  0  0  0  0  0  0  0  0  0  0  0
    1.4289   -1.6500    0.0000 N   0  0  0  0  0  0  0  0  0  0  0  0
    2.8579   -1.6500    0.0000 N   0  0  0  0  0  0  0  0  0  0  0  0
    2.8579   -2.4750    0.0000 S   0  0  0  0  0  0  0  0  0  0  0  0
    2.8579   -3.3000    0.0000 C   0  0  0  0  0  0  0  0  0  0  0  0
    3.5724   -3.7125    0.0000 C   0  0  0  0  0  0  0  0  0  0  0  0
    3.5724   -4.5375    0.0000 C   0  0  0  0  0  0  0  0  0  0  0  0
    2.8579   -4.9500    0.0000 C   0  0  0  0  0  0  0  0  0  0  0  0
    2.8579   -5.7750    0.0000 N   0  0  0  0  0  0  0  0  0  0  0  0
    2.1434   -4.5375    0.0000 C   0  0  0  0  0  0  0  0  0  0  0  0
    2.1434   -3.7125    0.0000 C   0  0  0  0  0  0  0  0  0  0  0  0
    2.0329   -2.4750    0.0000 O   0  0  0  0  0  0  0  0  0  0  0  0
    3.6829   -2.4750    0.0000 O   0  0  0  0  0  0  0  0  0  0  0  0
  1  2  2  0  0  0  0
  2  3  1  0  0  0  0
  3  4  2  0  0  0  0
  4  5  1  0  0  0  0
  5  6  2  0  0  0  0
  1  6  1  0  0  0  0
  6  7  1  0  0  0  0
  7  8  2  0  0  0  0
  8  9  1  0  0  0  0
  9 10  2  0  0  0  0
  5 10  1  0  0  0  0
  9 11  1  0  0  0  0
 11 12  1  0  0  0  0
 12 13  1  0  0  0  0
 13 14  2  0  0  0  0
 14 15  1  0  0  0  0
 15 16  2  0  0  0  0
 16 17  1  0  0  0  0
 16 18  1  0  0  0  0
 18 19  2  0  0  0  0
 13 19  1  0  0  0  0
 12 20  2  0  0  0  0
 12 21  2  0  0  0  0
M  END
>  <Name>
Sulfaquinoxaline

>  <CAS>
59-40-5

>  <Formula>
C14H11N4NaO2S

>  <MolWt>
300.34 

>  <Bioactivity>
An antiprotozoal agent used to combat coccidial infections of swine, cattle, fowl, and other veterinary animals. Also used in controlling outbreaks of fowl typhoid and fowl cholera and in treatment of infectious enteritis.

>  <Pathways>
Microbiology & Virology

>  <Target>
Antibiotic

>  <Receptor>
Others

>  <Reference>
1. Guo Y, et al.
Anal Chem. 2010 Sep 15;82(18):7550-5.

$$$$
42461-84-7
  Mrv1561503291623562D          

 34 34  0  0  1  0            999 V2000
    0.1099    0.1904    0.0000 C   0  0  1  0  0  0  0  0  0  0  0  0
    0.1099    1.0154    0.0000 O   0  0  0  0  0  0  0  0  0  0  0  0
   -0.6046   -0.2221    0.0000 C   0  0  2  0  0  0  0  0  0  0  0  0
   -0.6046   -1.0471    0.0000 O   0  0  0  0  0  0  0  0  0  0  0  0
   -1.3190    0.1904    0.0000 C   0  0  2  0  0  0  0  0  0  0  0  0
   -1.3190    1.0154    0.0000 O   0  0  0  0  0  0  0  0  0  0  0  0
   -2.0335   -0.2221    0.0000 C   0  0  0  0  0  0  0  0  0  0  0  0
   -2.7480    0.1904    0.0000 O   0  0  0  0  0  0  0  0  0  0  0  0
    0.8244   -0.2221    0.0000 C   0  0  1  0  0  0  0  0  0  0  0  0
    0.8244   -1.0471    0.0000 O   0  0  0  0  0  0  0  0  0  0  0  0
    1.5389    0.1904    0.0000 C   0  0  0  0  0  0  0  0  0  0  0  0
    2.2533   -0.2221    0.0000 N   0  0  0  0  0  0  0  0  0  0  0  0
    2.9678    0.1904    0.0000 C   0  0  0  0  0  0  0  0  0  0  0  0
    6.9969   -1.9643    0.0000 C   0  0  0  0  0  0  0  0  0  0  0  0
    7.7114   -1.5518    0.0000 C   0  0  0  0  0  0  0  0  0  0  0  0
    7.7114   -0.7268    0.0000 C   0  0  0  0  0  0  0  0  0  0  0  0
    6.9969   -0.3143    0.0000 C   0  0  0  0  0  0  0  0  0  0  0  0
    6.9969    0.5107    0.0000 N   0  0  0  0  0  0  0  0  0  0  0  0
    6.2825    0.9232    0.0000 C   0  0  0  0  0  0  0  0  0  0  0  0
    5.5680    0.5107    0.0000 N   0  0  0  0  0  0  0  0  0  0  0  0
    4.8535    0.9232    0.0000 C   0  0  0  0  0  0  0  0  0  0  0  0
    4.8535    1.7482    0.0000 C   0  0  0  0  0  0  0  0  0  0  0  0
    5.5680    2.1607    0.0000 C   0  0  0  0  0  0  0  0  0  0  0  0
    6.2825    1.7482    0.0000 C   0  0  0  0  0  0  0  0  0  0  0  0
    6.9969    2.1607    0.0000 C   0  0  0  0  0  0  0  0  0  0  0  0
    7.7114    1.7482    0.0000 O   0  0  0  0  0  0  0  0  0  0  0  0
    6.9969    2.9857    0.0000 O   0  0  0  0  0  0  0  0  0  0  0  0
    6.2825   -0.7268    0.0000 C   0  0  0  0  0  0  0  0  0  0  0  0
    6.2825   -1.5518    0.0000 C   0  0  0  0  0  0  0  0  0  0  0  0
    8.4259   -0.3143    0.0000 C   0  0  0  0  0  0  0  0  0  0  0  0
    8.4259   -1.9643    0.0000 C   0  0  0  0  0  0  0  0  0  0  0  0
    9.1403   -2.3768    0.0000 F   0  0  0  0  0  0  0  0  0  0  0  0
    8.8384   -1.2498    0.0000 F   0  0  0  0  0  0  0  0  0  0  0  0
    8.0134   -2.6788    0.0000 F   0  0  0  0  0  0  0  0  0  0  0  0
  1  2  1  6  0  0  0
  1  3  1  0  0  0  0
  3  4  1  6  0  0  0
  3  5  1  0  0  0  0
  5  6  1  1  0  0  0
  5  7  1  0  0  0  0
  7  8  1  0  0  0  0
  1  9  1  0  0  0  0
  9 10  1  6  0  0  0
  9 11  1  0  0  0  0
 11 12  1  0  0  0  0
 12 13  1  0  0  0  0
 14 15  2  0  0  0  0
 15 16  1  0  0  0  0
 16 17  2  0  0  0  0
 17 18  1  0  0  0  0
 18 19  1  0  0  0  0
 19 20  2  0  0  0  0
 20 21  1  0  0  0  0
 21 22  2  0  0  0  0
 22 23  1  0  0  0  0
 23 24  2  0  0  0  0
 19 24  1  0  0  0  0
 24 25  1  0  0  0  0
 25 26  2  0  0  0  0
 25 27  1  0  0  0  0
 17 28  1  0  0  0  0
 28 29  2  0  0  0  0
 14 29  1  0  0  0  0
 16 30  1  0  0  0  0
 15 31  1  0  0  0  0
 31 32  1  0  0  0  0
 31 33  1  0  0  0  0
 31 34  1  0  0  0  0
M  END
>  <Name>
Flunixin meglumin

>  <CAS>
42461-84-7

>  <Formula>
C14H11F3N2O2C7H17NO5

>  <MolWt>
491.46 

>  <Bioactivity>
Flunixin Meglumin is a potent inhibitor of the enzyme cyclooxygenase used as analgesic agent with anti-inflammatory and antipyretic activity.

>  <Pathways>
Neuroscience

>  <Target>
COX

>  <Receptor>
Prostaglandin G/H synthase 1/2

>  <Reference>
1. Duz M, et al. Am J Vet Res. 2015 Mar;76(3):208-15. 

$$$$
60-31-1
  Mrv1561503291623562D          

 11  9  0  0  0  0            999 V2000
    0.4125    0.5716    0.0000 C   0  0  0  0  0  0  0  0  0  0  0  0
   -0.0000    1.2860    0.0000 N   0  3  0  0  0  0  0  0  0  0  0  0
   -0.4125    2.0005    0.0000 C   0  0  0  0  0  0  0  0  0  0  0  0
   -0.7145    0.8735    0.0000 C   0  0  0  0  0  0  0  0  0  0  0  0
    0.7145    1.6985    0.0000 C   0  0  0  0  0  0  0  0  0  0  0  0
    0.0000   -0.1429    0.0000 C   0  0  0  0  0  0  0  0  0  0  0  0
    0.4125   -0.8574    0.0000 O   0  0  0  0  0  0  0  0  0  0  0  0
    0.0000   -1.5718    0.0000 C   0  0  0  0  0  0  0  0  0  0  0  0
    0.4125   -2.2863    0.0000 C   0  0  0  0  0  0  0  0  0  0  0  0
   -0.8250   -1.5718    0.0000 O   0  0  0  0  0  0  0  0  0  0  0  0
    3.0716    0.0000    0.0000 Cl  0  5  0  0  0  0  0  0  0  0  0  0
  1  2  1  0  0  0  0
  2  3  1  0  0  0  0
  2  4  1  0  0  0  0
  2  5  1  0  0  0  0
  1  6  1  0  0  0  0
  6  7  1  0  0  0  0
  7  8  1  0  0  0  0
  8  9  1  0  0  0  0
  8 10  2  0  0  0  0
M  CHG  2   2   1  11  -1
M  END
>  <Name>
Acetylcholine chloride

>  <CAS>
60-31-1

>  <Formula>
C7H16ClNO2

>  <MolWt>
181.66 

>  <Bioactivity>
A neurotransmitter found at neuromuscular junctions, autonomic ganglia, parasympathetic effector junctions, a subset of sympathetic effector junctions, and at many sites in the central nervous system. 

>  <Pathways>
Neuroscience

>  <Target>
AChR agonist

>  <Receptor>
AChR

>  <Reference>
1. Sauvet F, et al. Microvasc Res. 2011 Sep;82(2):190-7. 

$$$$
440-17-5
  Mrv1561503291623562D          

 32 31  0  0  0  0            999 V2000
    0.4125    0.0000    0.0000 H   0  3  0  0  0  0  0  0  0  0  0  0
    3.5946    0.0000    0.0000 H   0  3  0  0  0  0  0  0  0  0  0  0
   -1.0717   -4.5375    0.0000 C   0  0  0  0  0  0  0  0  0  0  0  0
   -1.0717   -5.3625    0.0000 N   0  0  0  0  0  0  0  0  0  0  0  0
   -0.3572   -5.7750    0.0000 C   0  0  0  0  0  0  0  0  0  0  0  0
   -0.3572   -6.6000    0.0000 C   0  0  0  0  0  0  0  0  0  0  0  0
   -1.0717   -7.0125    0.0000 S   0  0  0  0  0  0  0  0  0  0  0  0
   -1.7862   -6.6000    0.0000 C   0  0  0  0  0  0  0  0  0  0  0  0
   -2.5006   -7.0125    0.0000 C   0  0  0  0  0  0  0  0  0  0  0  0
   -3.2151   -6.6000    0.0000 C   0  0  0  0  0  0  0  0  0  0  0  0
   -3.2151   -5.7750    0.0000 C   0  0  0  0  0  0  0  0  0  0  0  0
   -2.5006   -5.3625    0.0000 C   0  0  0  0  0  0  0  0  0  0  0  0
   -1.7862   -5.7750    0.0000 C   0  0  0  0  0  0  0  0  0  0  0  0
    0.3572   -7.0125    0.0000 C   0  0  0  0  0  0  0  0  0  0  0  0
    1.0717   -6.6000    0.0000 C   0  0  0  0  0  0  0  0  0  0  0  0
    1.0717   -5.7750    0.0000 C   0  0  0  0  0  0  0  0  0  0  0  0
    0.3572   -5.3625    0.0000 C   0  0  0  0  0  0  0  0  0  0  0  0
    1.7862   -5.3625    0.0000 C   0  0  0  0  0  0  0  0  0  0  0  0
    2.5006   -4.9500    0.0000 F   0  0  0  0  0  0  0  0  0  0  0  0
    1.3737   -4.6480    0.0000 F   0  0  0  0  0  0  0  0  0  0  0  0
    2.1987   -6.0770    0.0000 F   0  0  0  0  0  0  0  0  0  0  0  0
   -0.3572   -4.1250    0.0000 C   0  0  0  0  0  0  0  0  0  0  0  0
   -0.3572   -3.3000    0.0000 C   0  0  0  0  0  0  0  0  0  0  0  0
    0.3572   -2.8875    0.0000 N   0  0  0  0  0  0  0  0  0  0  0  0
    0.3572   -2.0625    0.0000 C   0  0  0  0  0  0  0  0  0  0  0  0
    1.0717   -1.6500    0.0000 C   0  0  0  0  0  0  0  0  0  0  0  0
    1.7862   -2.0625    0.0000 N   0  0  0  0  0  0  0  0  0  0  0  0
    1.7862   -2.8875    0.0000 C   0  0  0  0  0  0  0  0  0  0  0  0
    1.0717   -3.3000    0.0000 C   0  0  0  0  0  0  0  0  0  0  0  0
    2.5006   -1.6500    0.0000 C   0  0  0  0  0  0  0  0  0  0  0  0
   -0.4125    0.0000    0.0000 Cl  0  5  0  0  0  0  0  0  0  0  0  0
    2.7696    0.0000    0.0000 Cl  0  5  0  0  0  0  0  0  0  0  0  0
  3  4  1  0  0  0  0
  4  5  1  0  0  0  0
  5  6  2  0  0  0  0
  6  7  1  0  0  0  0
  7  8  1  0  0  0  0
  8  9  2  0  0  0  0
  9 10  1  0  0  0  0
 10 11  2  0  0  0  0
 11 12  1  0  0  0  0
 12 13  2  0  0  0  0
  4 13  1  0  0  0  0
  8 13  1  0  0  0  0
  6 14  1  0  0  0  0
 14 15  2  0  0  0  0
 15 16  1  0  0  0  0
 16 17  2  0  0  0  0
  5 17  1  0  0  0  0
 16 18  1  0  0  0  0
 18 19  1  0  0  0  0
 18 20  1  0  0  0  0
 18 21  1  0  0  0  0
  3 22  1  0  0  0  0
 22 23  1  0  0  0  0
 23 24  1  0  0  0  0
 24 25  1  0  0  0  0
 25 26  1  0  0  0  0
 26 27  1  0  0  0  0
 27 28  1  0  0  0  0
 28 29  1  0  0  0  0
 24 29  1  0  0  0  0
 27 30  1  0  0  0  0
M  CHG  4   1   1   2   1  31  -1  32  -1
M  END
>  <Name>
Trifluoperazine 2HCl

>  <CAS>
440-17-5

>  <Formula>
C21H26Cl2F3N3S

>  <MolWt>
480.43 

>  <Bioactivity>
A phenothiazine with actions similar to chlorpromazine. It is used as an antipsychotic and an antiemetic. 

>  <Pathways>
Membrane Transporter/Ion Channel; GPCR/G Protein; Neuroscience

>  <Target>
Dopamine Receptor; Adrenergic Receptor antagonist;Calmodulin inhibitor

>  <Receptor>
D(2) dopamine receptor;?-adrenergic receptor;Calmodulin

>  <Reference>
1. Lahti RA, et al. Eur J Pharmacol. 1993 Jun 4;236(3):483-6.

$$$$
T1250
  Mrv1561503291623562D          

 11 13  0  0  0  0            999 V2000
    1.1270    1.4757    0.0000 C   0  0  0  0  0  0  0  0  0  0  0  0
    1.5395    2.1901    0.0000 N   0  0  0  0  0  0  0  0  0  0  0  0
    1.5395    3.0151    0.0000 P   0  0  0  0  0  0  0  0  0  0  0  0
    1.5395    3.8401    0.0000 N   0  0  0  0  0  0  0  0  0  0  0  0
    1.1270    4.5546    0.0000 C   0  0  0  0  0  0  0  0  0  0  0  0
    1.9520    4.5546    0.0000 C   0  0  0  0  0  0  0  0  0  0  0  0
    2.3645    3.0151    0.0000 N   0  0  0  0  0  0  0  0  0  0  0  0
    3.0789    3.4276    0.0000 C   0  0  0  0  0  0  0  0  0  0  0  0
    3.0789    2.6026    0.0000 C   0  0  0  0  0  0  0  0  0  0  0  0
    0.7145    3.0151    0.0000 S   0  0  0  0  0  0  0  0  0  0  0  0
    1.9520    1.4757    0.0000 C   0  0  0  0  0  0  0  0  0  0  0  0
  1  2  1  0  0  0  0
  2  3  1  0  0  0  0
  3  4  1  0  0  0  0
  4  5  1  0  0  0  0
  5  6  1  0  0  0  0
  4  6  1  0  0  0  0
  3  7  1  0  0  0  0
  7  8  1  0  0  0  0
  8  9  1  0  0  0  0
  7  9  1  0  0  0  0
  3 10  2  0  0  0  0
  2 11  1  0  0  0  0
  1 11  1  0  0  0  0
M  END
>  <Name>
Triethylenethiophosphoramide

>  <CAS>
52-24-4

>  <Formula>
C6H12N3PS

>  <MolWt>
189.22 

>  <Bioactivity>
N,N’N’-triethylenethiophosphoramide (ThioTEPA) is a cancer chemotherapeutic member of the alkylating agent group, now in use for over 50 years. It is a stable derivative of N,N’,N’’- triethylenephosphoramide (TEPA). It is mostly used to treat breast cancer, ovarian cancer and bladder cancer. It is also used as conditioning for Bone marrow transplantation. Its main toxicity is myelosuppression. 

>  <Pathways>
DNA Damage/DNA Repair

>  <Target>
DNA Alkylating

>  <Receptor>
DNA

>  <Reference>
1. Gor PP, et al. Breast Cancer Res. 2010;12(3):R26.

$$$$
407-41-0
  Mrv1561503291623562D          

 11 10  0  0  1  0            999 V2000
    0.8250    0.0000    0.0000 C   0  0  1  0  0  0  0  0  0  0  0  0
    1.2375   -0.7145    0.0000 C   0  0  0  0  0  0  0  0  0  0  0  0
    0.8250   -1.4289    0.0000 O   0  0  0  0  0  0  0  0  0  0  0  0
    1.2375   -2.1434    0.0000 P   0  0  0  0  0  0  0  0  0  0  0  0
    1.6500   -2.8579    0.0000 O   0  0  0  0  0  0  0  0  0  0  0  0
    1.9520   -1.7309    0.0000 O   0  0  0  0  0  0  0  0  0  0  0  0
    0.5230   -2.5559    0.0000 O   0  0  0  0  0  0  0  0  0  0  0  0
    1.2375    0.7145    0.0000 C   0  0  0  0  0  0  0  0  0  0  0  0
    0.8250    1.4289    0.0000 O   0  0  0  0  0  0  0  0  0  0  0  0
    2.0625    0.7145    0.0000 O   0  0  0  0  0  0  0  0  0  0  0  0
    0.0000    0.0000    0.0000 N   0  0  0  0  0  0  0  0  0  0  0  0
  1  2  1  0  0  0  0
  2  3  1  0  0  0  0
  3  4  1  0  0  0  0
  4  5  1  0  0  0  0
  4  6  1  0  0  0  0
  4  7  2  0  0  0  0
  1  8  1  0  0  0  0
  8  9  1  0  0  0  0
  8 10  2  0  0  0  0
  1 11  1  6  0  0  0
M  END
>  <Name>
Phosphoserine

>  <CAS>
407-41-0

>  <Formula>
C3H8NO6P

>  <MolWt>
185.07 

>  <Bioactivity>
The phosphoric acid ester of serine. 

>  <Pathways>
Neuroscience

>  <Target>
GluR antagonist

>  <Receptor>
Amino Acids and Derivatives;NMDA receptor

>  <Reference>
1. Nakamura T, et al. Biosci Biotechnol Biochem. 2015 Mar 17:1-7.

$$$$
89796-99-6
  Mrv1561503291623562D          

 23 24  0  0  0  0            999 V2000
   -1.4289   -2.4750    0.0000 C   0  0  0  0  0  0  0  0  0  0  0  0
   -1.4289   -1.6500    0.0000 C   0  0  0  0  0  0  0  0  0  0  0  0
   -0.7145   -1.2375    0.0000 C   0  0  0  0  0  0  0  0  0  0  0  0
   -0.0000   -1.6500    0.0000 C   0  0  0  0  0  0  0  0  0  0  0  0
   -0.0000   -2.4750    0.0000 C   0  0  0  0  0  0  0  0  0  0  0  0
   -0.7145   -2.8875    0.0000 C   0  0  0  0  0  0  0  0  0  0  0  0
   -0.7145   -3.7125    0.0000 N   0  0  0  0  0  0  0  0  0  0  0  0
   -1.4289   -4.1250    0.0000 C   0  0  0  0  0  0  0  0  0  0  0  0
   -1.4289   -4.9500    0.0000 C   0  0  0  0  0  0  0  0  0  0  0  0
   -2.1434   -5.3625    0.0000 C   0  0  0  0  0  0  0  0  0  0  0  0
   -2.8579   -4.9500    0.0000 C   0  0  0  0  0  0  0  0  0  0  0  0
   -2.8579   -4.1250    0.0000 C   0  0  0  0  0  0  0  0  0  0  0  0
   -2.1434   -3.7125    0.0000 C   0  0  0  0  0  0  0  0  0  0  0  0
   -2.1434   -2.8875    0.0000 Cl  0  0  0  0  0  0  0  0  0  0  0  0
   -0.7145   -5.3625    0.0000 Cl  0  0  0  0  0  0  0  0  0  0  0  0
    0.7145   -2.8875    0.0000 C   0  0  0  0  0  0  0  0  0  0  0  0
    1.4289   -2.4750    0.0000 C   0  0  0  0  0  0  0  0  0  0  0  0
    2.1434   -2.8875    0.0000 O   0  0  0  0  0  0  0  0  0  0  0  0
    2.8579   -2.4750    0.0000 C   0  0  0  0  0  0  0  0  0  0  0  0
    3.5724   -2.8875    0.0000 C   0  0  0  0  0  0  0  0  0  0  0  0
    4.2868   -2.4750    0.0000 O   0  0  0  0  0  0  0  0  0  0  0  0
    3.5724   -3.7125    0.0000 O   0  0  0  0  0  0  0  0  0  0  0  0
    1.4289   -1.6500    0.0000 O   0  0  0  0  0  0  0  0  0  0  0  0
  1  2  2  0  0  0  0
  2  3  1  0  0  0  0
  3  4  2  0  0  0  0
  4  5  1  0  0  0  0
  5  6  2  0  0  0  0
  1  6  1  0  0  0  0
  6  7  1  0  0  0  0
  7  8  1  0  0  0  0
  8  9  2  0  0  0  0
  9 10  1  0  0  0  0
 10 11  2  0  0  0  0
 11 12  1  0  0  0  0
 12 13  2  0  0  0  0
  8 13  1  0  0  0  0
 13 14  1  0  0  0  0
  9 15  1  0  0  0  0
  5 16  1  0  0  0  0
 16 17  1  0  0  0  0
 17 18  1  0  0  0  0
 18 19  1  0  0  0  0
 19 20  1  0  0  0  0
 20 21  1  0  0  0  0
 20 22  2  0  0  0  0
 17 23  2  0  0  0  0
M  END
>  <Name>
Aceclofenac

>  <CAS>
89796-99-6

>  <Formula>
C16H13Cl2NO4

>  <MolWt>
354.18 

>  <Bioactivity>
Aceclofenac is a non-steroidal anti-inflammatory drug (NSAID) analog of Diclofenac. It is used for the relief of pain and inflammation in rheumatoid arthritis, osteoarthritis and ankylosing spondylitis. 

>  <Pathways>
Neuroscience

>  <Target>
COX

>  <Receptor>
COX

>  <Reference>
1. Ganesh M, et al. Int J Biol Macromol. 2015 Mar;74:310-7. 

$$$$
53164-05-9
  Mrv1561503291623562D          

 29 31  0  0  0  0            999 V2000
    0.6059    4.0537    0.0000 C   0  0  0  0  0  0  0  0  0  0  0  0
    1.1579    4.6668    0.0000 C   0  0  0  0  0  0  0  0  0  0  0  0
    1.9649    4.4953    0.0000 C   0  0  0  0  0  0  0  0  0  0  0  0
    2.2198    3.7106    0.0000 C   0  0  0  0  0  0  0  0  0  0  0  0
    1.6678    3.0975    0.0000 C   0  0  0  0  0  0  0  0  0  0  0  0
    0.8608    3.2691    0.0000 C   0  0  0  0  0  0  0  0  0  0  0  0
    0.4483    2.5546    0.0000 N   0  0  0  0  0  0  0  0  0  0  0  0
    1.0004    1.9415    0.0000 C   0  0  0  0  0  0  0  0  0  0  0  0
    1.7540    2.2771    0.0000 C   0  0  0  0  0  0  0  0  0  0  0  0
    2.4685    1.8646    0.0000 C   0  0  0  0  0  0  0  0  0  0  0  0
    3.1830    2.2771    0.0000 C   0  0  0  0  0  0  0  0  0  0  0  0
    3.8974    1.8646    0.0000 O   0  0  0  0  0  0  0  0  0  0  0  0
    4.6119    2.2771    0.0000 C   0  0  0  0  0  0  0  0  0  0  0  0
    5.3264    1.8646    0.0000 C   0  0  0  0  0  0  0  0  0  0  0  0
    6.0409    2.2771    0.0000 O   0  0  0  0  0  0  0  0  0  0  0  0
    5.3264    1.0396    0.0000 O   0  0  0  0  0  0  0  0  0  0  0  0
    3.1830    3.1021    0.0000 O   0  0  0  0  0  0  0  0  0  0  0  0
    0.8288    1.1345    0.0000 C   0  0  0  0  0  0  0  0  0  0  0  0
   -0.3722    2.4684    0.0000 C   0  0  0  0  0  0  0  0  0  0  0  0
   -0.8571    3.1358    0.0000 C   0  0  0  0  0  0  0  0  0  0  0  0
   -1.6776    3.0496    0.0000 C   0  0  0  0  0  0  0  0  0  0  0  0
   -2.1625    3.7170    0.0000 C   0  0  0  0  0  0  0  0  0  0  0  0
   -1.8269    4.4707    0.0000 C   0  0  0  0  0  0  0  0  0  0  0  0
   -1.0064    4.5569    0.0000 C   0  0  0  0  0  0  0  0  0  0  0  0
   -0.5215    3.8895    0.0000 C   0  0  0  0  0  0  0  0  0  0  0  0
   -2.3118    5.1381    0.0000 Cl  0  0  0  0  0  0  0  0  0  0  0  0
   -0.7077    1.7147    0.0000 O   0  0  0  0  0  0  0  0  0  0  0  0
    2.5169    5.1084    0.0000 O   0  0  0  0  0  0  0  0  0  0  0  0
    3.3239    4.9368    0.0000 C   0  0  0  0  0  0  0  0  0  0  0  0
  1  2  2  0  0  0  0
  2  3  1  0  0  0  0
  3  4  2  0  0  0  0
  4  5  1  0  0  0  0
  5  6  2  0  0  0  0
  1  6  1  0  0  0  0
  6  7  1  0  0  0  0
  7  8  1  0  0  0  0
  8  9  2  0  0  0  0
  5  9  1  0  0  0  0
  9 10  1  0  0  0  0
 10 11  1  0  0  0  0
 11 12  1  0  0  0  0
 12 13  1  0  0  0  0
 13 14  1  0  0  0  0
 14 15  1  0  0  0  0
 14 16  2  0  0  0  0
 11 17  2  0  0  0  0
  8 18  1  0  0  0  0
  7 19  1  0  0  0  0
 19 20  1  0  0  0  0
 20 21  2  0  0  0  0
 21 22  1  0  0  0  0
 22 23  2  0  0  0  0
 23 24  1  0  0  0  0
 24 25  2  0  0  0  0
 20 25  1  0  0  0  0
 23 26  1  0  0  0  0
 19 27  2  0  0  0  0
  3 28  1  0  0  0  0
 28 29  1  0  0  0  0
M  END
>  <Name>
Acemetacin

>  <CAS>
53164-05-9

>  <Formula>
C21H18ClNO6

>  <MolWt>
415.82 

>  <Bioactivity>
Acemetacin (Emflex) is a non-steroidal anti-inflammatory drug and a glycolic acid ester of indometacin that is a cyclooxygenase inhibitor.

>  <Pathways>
Neuroscience

>  <Target>
COX inhibitor

>  <Receptor>
Prostaglandin G/H synthase

>  <Reference>
1. Chávez-Piña AE, et al. Br J Pharmacol, 2008, 155(6), 857-864.

$$$$
70374-39-9
  Mrv1561503291623562D          

 23 25  0  0  0  0            999 V2000
   -0.1435   -0.0305    0.0000 C   0  0  0  0  0  0  0  0  0  0  0  0
   -0.6284   -0.6979    0.0000 C   0  0  0  0  0  0  0  0  0  0  0  0
   -1.4534   -0.6979    0.0000 Cl  0  0  0  0  0  0  0  0  0  0  0  0
   -0.1435   -1.3654    0.0000 S   0  0  0  0  0  0  0  0  0  0  0  0
    0.6411   -1.1104    0.0000 C   0  0  0  0  0  0  0  0  0  0  0  0
    0.6411   -0.2854    0.0000 C   0  0  0  0  0  0  0  0  0  0  0  0
    1.3556    0.1271    0.0000 S   0  0  0  0  0  0  0  0  0  0  0  0
    0.8253    0.7590    0.0000 O   0  0  0  0  0  0  0  0  0  0  0  0
    1.8859    0.7590    0.0000 O   0  0  0  0  0  0  0  0  0  0  0  0
    2.0701   -0.2854    0.0000 N   0  0  0  0  0  0  0  0  0  0  0  0
    2.0701   -1.1104    0.0000 C   0  0  0  0  0  0  0  0  0  0  0  0
    1.3556   -1.5229    0.0000 C   0  0  0  0  0  0  0  0  0  0  0  0
    1.3556   -2.3479    0.0000 O   0  0  0  0  0  0  0  0  0  0  0  0
    2.7845   -1.5229    0.0000 C   0  0  0  0  0  0  0  0  0  0  0  0
    2.7845   -2.3479    0.0000 O   0  0  0  0  0  0  0  0  0  0  0  0
    3.4990   -1.1104    0.0000 N   0  0  0  0  0  0  0  0  0  0  0  0
    4.2135   -1.5229    0.0000 C   0  0  0  0  0  0  0  0  0  0  0  0
    4.9279   -1.1104    0.0000 C   0  0  0  0  0  0  0  0  0  0  0  0
    5.6424   -1.5229    0.0000 C   0  0  0  0  0  0  0  0  0  0  0  0
    5.6424   -2.3479    0.0000 C   0  0  0  0  0  0  0  0  0  0  0  0
    4.9279   -2.7604    0.0000 C   0  0  0  0  0  0  0  0  0  0  0  0
    4.2135   -2.3479    0.0000 N   0  0  0  0  0  0  0  0  0  0  0  0
    2.7845    0.1271    0.0000 C   0  0  0  0  0  0  0  0  0  0  0  0
  1  2  2  0  0  0  0
  2  3  1  0  0  0  0
  2  4  1  0  0  0  0
  4  5  1  0  0  0  0
  5  6  2  0  0  0  0
  1  6  1  0  0  0  0
  6  7  1  0  0  0  0
  7  8  2  0  0  0  0
  7  9  2  0  0  0  0
  7 10  1  0  0  0  0
 10 11  1  0  0  0  0
 11 12  1  0  0  0  0
  5 12  1  0  0  0  0
 12 13  2  0  0  0  0
 11 14  2  0  0  0  0
 14 15  1  0  0  0  0
 14 16  1  0  0  0  0
 16 17  1  0  0  0  0
 17 18  2  0  0  0  0
 18 19  1  0  0  0  0
 19 20  2  0  0  0  0
 20 21  1  0  0  0  0
 21 22  2  0  0  0  0
 17 22  1  0  0  0  0
 10 23  1  0  0  0  0
M  END
>  <Name>
Lornoxicam

>  <CAS>
70374-39-9

>  <Formula>
C13H10ClN3O4S2

>  <MolWt>
371.82 

>  <Bioactivity>
Lornoxicam (chlortenoxicam) is a new nonsteroidal anti-inflammatory drug (NSAID) of the oxicam class with analgesic, anti-inflammatory and antipyretic properties. Lornoxicam differs from other oxicam compounds in its potent inhibition of prostaglandin biosynthesis, a property that explains the particularly pronounced efficacy of the drug. Lornoxicam is approved for use in Japan.

>  <Pathways>
Neuroscience

>  <Target>
COX inhibitor

>  <Receptor>
Prostaglandin G/H synthase

>  <Reference>
1. Renner RM, et al. Contraception. 2010 May;81(5):372-88. 

$$$$
6202-23-9
  Mrv1561503291623562D          

 23 23  0  0  0  0            999 V2000
    0.4125    0.0000    0.0000 H   0  3  0  0  0  0  0  0  0  0  0  0
    7.3428   -1.2237    0.0000 C   0  0  0  0  0  0  0  0  0  0  0  0
    7.9475   -0.6626    0.0000 C   0  0  0  0  0  0  0  0  0  0  0  0
    7.7639    0.1417    0.0000 C   0  0  0  0  0  0  0  0  0  0  0  0
    6.9756    0.3849    0.0000 C   0  0  0  0  0  0  0  0  0  0  0  0
    6.3708   -0.1763    0.0000 C   0  0  0  0  0  0  0  0  0  0  0  0
    6.5544   -0.9806    0.0000 C   0  0  0  0  0  0  0  0  0  0  0  0
    6.0400   -1.6256    0.0000 C   0  0  0  0  0  0  0  0  0  0  0  0
    5.2150   -1.6256    0.0000 C   0  0  0  0  0  0  0  0  0  0  0  0
    4.7006   -0.9806    0.0000 C   0  0  0  0  0  0  0  0  0  0  0  0
    4.8842   -0.1763    0.0000 C   0  0  0  0  0  0  0  0  0  0  0  0
    5.6275    0.1817    0.0000 C   0  0  0  0  0  0  0  0  0  0  0  0
    5.6275    1.0067    0.0000 C   0  0  0  0  0  0  0  0  0  0  0  0
    4.9131    1.4192    0.0000 C   0  0  0  0  0  0  0  0  0  0  0  0
    4.1986    1.0067    0.0000 C   0  0  0  0  0  0  0  0  0  0  0  0
    3.4841    1.4192    0.0000 N   0  0  0  0  0  0  0  0  0  0  0  0
    2.7696    1.0067    0.0000 C   0  0  0  0  0  0  0  0  0  0  0  0
    3.4841    2.2442    0.0000 C   0  0  0  0  0  0  0  0  0  0  0  0
    4.2795    0.3849    0.0000 C   0  0  0  0  0  0  0  0  0  0  0  0
    3.4911    0.1417    0.0000 C   0  0  0  0  0  0  0  0  0  0  0  0
    3.3075   -0.6626    0.0000 C   0  0  0  0  0  0  0  0  0  0  0  0
    3.9123   -1.2237    0.0000 C   0  0  0  0  0  0  0  0  0  0  0  0
   -0.4125    0.0000    0.0000 Cl  0  5  0  0  0  0  0  0  0  0  0  0
  2  3  2  0  0  0  0
  3  4  1  0  0  0  0
  4  5  2  0  0  0  0
  5  6  1  0  0  0  0
  6  7  2  0  0  0  0
  2  7  1  0  0  0  0
  7  8  1  0  0  0  0
  8  9  2  0  0  0  0
  9 10  1  0  0  0  0
 10 11  2  0  0  0  0
 11 12  1  0  0  0  0
  6 12  1  0  0  0  0
 12 13  2  3  0  0  0
 13 14  1  0  0  0  0
 14 15  1  0  0  0  0
 15 16  1  0  0  0  0
 16 17  1  0  0  0  0
 16 18  1  0  0  0  0
 11 19  1  0  0  0  0
 19 20  2  0  0  0  0
 20 21  1  0  0  0  0
 21 22  2  0  0  0  0
 10 22  1  0  0  0  0
M  CHG  2   1   1  23  -1
M  END
>  <Name>
Cyclobenzaprine HCl

>  <CAS>
6202-23-9

>  <Formula>
C20H22ClN

>  <MolWt>
311.86 

>  <Bioactivity>
Cyclobenzaprine HCl is a muscle relaxant by blocking pain sensations, used for the treatment of muscle spasms.

>  <Pathways>
Neuroscience

>  <Target>
5-HT Receptor antagonist

>  <Receptor>
5-HT Receptor

>  <Reference>
1. Honda M, et al. Eur J Pharmacol. 2003 Jan 1;458(1-2):91-9.

$$$$
T1533
  Mrv1561503291623562D          

 27 26  0  0  1  0            999 V2000
   -3.5753   -0.1275    0.0000 C   0  0  0  0  0  0  0  0  0  0  0  0
   -3.5753   -0.9525    0.0000 N   0  0  0  0  0  0  0  0  0  0  0  0
   -4.2898    0.2850    0.0000 C   0  0  0  0  0  0  0  0  0  0  0  0
   -5.0043   -0.1275    0.0000 C   0  0  0  0  0  0  0  0  0  0  0  0
   -4.2898    1.1100    0.0000 C   0  0  0  0  0  0  0  0  0  0  0  0
   -2.8609    0.2850    0.0000 C   0  0  0  0  0  0  0  0  0  0  0  0
   -2.1464   -0.1275    0.0000 O   0  0  0  0  0  0  0  0  0  0  0  0
   -1.4319    0.2850    0.0000 C   0  0  0  0  0  0  0  0  0  0  0  0
   -0.7175   -0.1275    0.0000 C   0  0  0  0  0  0  0  0  0  0  0  0
   -0.0030    0.2850    0.0000 O   0  0  0  0  0  0  0  0  0  0  0  0
    0.7115   -0.1275    0.0000 C   0  0  0  0  0  0  0  0  0  0  0  0
    1.4260    0.2850    0.0000 N   0  0  0  0  0  0  0  0  0  0  0  0
    2.1796   -0.0506    0.0000 C   0  0  0  0  0  0  0  0  0  0  0  0
    2.7317    0.5625    0.0000 C   0  0  0  0  0  0  0  0  0  0  0  0
    2.3192    1.2770    0.0000 N   0  0  0  0  0  0  0  0  0  0  0  0
    1.5122    1.1055    0.0000 C   0  0  0  0  0  0  0  0  0  0  0  0
    3.5386    0.3910    0.0000 C   0  0  0  0  0  0  0  0  0  0  0  0
    4.0907    1.0041    0.0000 O   0  0  0  0  0  0  0  0  0  0  0  0
    3.7936   -0.3936    0.0000 N   0  0  0  0  0  0  0  0  0  0  0  0
    3.2415   -1.0067    0.0000 C   0  0  0  0  0  0  0  0  0  0  0  0
    2.4346   -0.8352    0.0000 N   0  0  0  0  0  0  0  0  0  0  0  0
    3.4965   -1.7913    0.0000 N   0  0  0  0  0  0  0  0  0  0  0  0
   -0.7175   -0.9525    0.0000 C   0  0  0  0  0  0  0  0  0  0  0  0
   -0.0030   -1.3650    0.0000 O   0  0  0  0  0  0  0  0  0  0  0  0
   -2.8609    1.1100    0.0000 O   0  0  0  0  0  0  0  0  0  0  0  0
    7.2728    0.0000    0.0000 H   0  3  0  0  0  0  0  0  0  0  0  0
    6.4478    0.0000    0.0000 Cl  0  5  0  0  0  0  0  0  0  0  0  0
  1  2  1  0  0  0  0
  1  3  1  0  0  0  0
  3  4  1  0  0  0  0
  3  5  1  0  0  0  0
  1  6  1  0  0  0  0
  6  7  1  0  0  0  0
  7  8  1  0  0  0  0
  8  9  1  0  0  0  0
  9 10  1  0  0  0  0
 10 11  1  0  0  0  0
 11 12  1  0  0  0  0
 12 13  1  0  0  0  0
 13 14  2  0  0  0  0
 14 15  1  0  0  0  0
 15 16  2  0  0  0  0
 12 16  1  0  0  0  0
 14 17  1  0  0  0  0
 17 18  2  0  0  0  0
 17 19  1  0  0  0  0
 19 20  2  0  0  0  0
 20 21  1  0  0  0  0
 13 21  1  0  0  0  0
 20 22  1  0  0  0  0
  9 23  1  0  0  0  0
 23 24  1  0  0  0  0
  6 25  2  0  0  0  0
M  CHG  2  26   1  27  -1
M  END
>  <Name>
Valganciclovir HCl

>  <CAS>
175865-59-5

>  <Formula>
C14H23ClN6O5

>  <MolWt>
390.82 

>  <Bioactivity>
Valganciclovir (hydrochloride), the L-valyl ester of ganciclovir, is actually a prodrug for ganciclovir. Valganciclovir is an antiviral medication used to treat cytomegalovirus infections.

>  <Pathways>
Microbiology & Virology

>  <Target>
Antiviral

>  <Receptor>
CMV

>  <Reference>
1. Sugawara M, et al. J Pharm Sci, 2000, 89(6), 781-789.

$$$$
29868-97-1
  Mrv1561503291623562D          

 30 29  0  0  0  0            999 V2000
    0.2498    2.2605    0.0000 N   0  0  0  0  0  0  0  0  0  0  0  0
    0.7642    1.6155    0.0000 C   0  0  0  0  0  0  0  0  0  0  0  0
    0.5806    0.8112    0.0000 C   0  0  0  0  0  0  0  0  0  0  0  0
   -0.1627    0.4532    0.0000 N   0  0  0  0  0  0  0  0  0  0  0  0
   -0.1627   -0.3718    0.0000 C   0  0  0  0  0  0  0  0  0  0  0  0
   -0.8772   -0.7843    0.0000 O   0  0  0  0  0  0  0  0  0  0  0  0
    0.5517   -0.7843    0.0000 C   0  0  0  0  0  0  0  0  0  0  0  0
    0.5517   -1.6093    0.0000 N   0  0  0  0  0  0  0  0  0  0  0  0
    1.2662   -2.0218    0.0000 C   0  0  0  0  0  0  0  0  0  0  0  0
    1.2662   -2.8468    0.0000 C   0  0  0  0  0  0  0  0  0  0  0  0
    0.5517   -3.2593    0.0000 N   0  0  0  0  0  0  0  0  0  0  0  0
   -0.1627   -2.8468    0.0000 C   0  0  0  0  0  0  0  0  0  0  0  0
   -0.1627   -2.0218    0.0000 C   0  0  0  0  0  0  0  0  0  0  0  0
    0.5517   -4.0843    0.0000 C   0  0  0  0  0  0  0  0  0  0  0  0
   -0.9060    0.8112    0.0000 C   0  0  0  0  0  0  0  0  0  0  0  0
   -1.5108    0.2500    0.0000 C   0  0  0  0  0  0  0  0  0  0  0  0
   -2.2991    0.4932    0.0000 C   0  0  0  0  0  0  0  0  0  0  0  0
   -2.4827    1.2975    0.0000 C   0  0  0  0  0  0  0  0  0  0  0  0
   -1.8780    1.8587    0.0000 C   0  0  0  0  0  0  0  0  0  0  0  0
   -1.0896    1.6155    0.0000 C   0  0  0  0  0  0  0  0  0  0  0  0
   -0.5752    2.2605    0.0000 C   0  0  0  0  0  0  0  0  0  0  0  0
   -0.9332    3.0038    0.0000 O   0  0  0  0  0  0  0  0  0  0  0  0
    1.1853    0.2500    0.0000 N   0  0  0  0  0  0  0  0  0  0  0  0
    1.9737    0.4932    0.0000 C   0  0  0  0  0  0  0  0  0  0  0  0
    2.1573    1.2975    0.0000 C   0  0  0  0  0  0  0  0  0  0  0  0
    1.5525    1.8587    0.0000 C   0  0  0  0  0  0  0  0  0  0  0  0
    5.3394    0.0000    0.0000 H   0  3  0  0  0  0  0  0  0  0  0  0
    0.4125   -5.7343    0.0000 H   0  3  0  0  0  0  0  0  0  0  0  0
    4.5144    0.0000    0.0000 Cl  0  5  0  0  0  0  0  0  0  0  0  0
   -0.4125   -5.7343    0.0000 Cl  0  5  0  0  0  0  0  0  0  0  0  0
  1  2  1  0  0  0  0
  2  3  2  0  0  0  0
  3  4  1  0  0  0  0
  4  5  1  0  0  0  0
  5  6  2  0  0  0  0
  5  7  1  0  0  0  0
  7  8  1  0  0  0  0
  8  9  1  0  0  0  0
  9 10  1  0  0  0  0
 10 11  1  0  0  0  0
 11 12  1  0  0  0  0
 12 13  1  0  0  0  0
  8 13  1  0  0  0  0
 11 14  1  0  0  0  0
  4 15  1  0  0  0  0
 15 16  2  0  0  0  0
 16 17  1  0  0  0  0
 17 18  2  0  0  0  0
 18 19  1  0  0  0  0
 19 20  2  0  0  0  0
 15 20  1  0  0  0  0
 20 21  1  0  0  0  0
  1 21  1  0  0  0  0
 21 22  2  0  0  0  0
  3 23  1  0  0  0  0
 23 24  2  0  0  0  0
 24 25  1  0  0  0  0
 25 26  2  0  0  0  0
  2 26  1  0  0  0  0
M  CHG  4  27   1  28   1  29  -1  30  -1
M  END
>  <Name>
Pirenzepine HCl

>  <CAS>
29868-97-1

>  <Formula>
C19H21N5O2·2HCl

>  <MolWt>
424.32 

>  <Bioactivity>
An antimuscarinic agent that inhibits gastric secretion at lower doses than are required to affect gastrointestinal motility, salivary, central nervous system, cardiovascular, ocular, and urinary function. It promotes the healing of duodenal ulcers and due to its cytoprotective action is beneficial in the prevention of duodenal ulcer recurrence. It also potentiates the effect of other antiulcer agents such as CIMETIDINE and RANITIDINE. It is generally well tolerated by patients.

>  <Pathways>
Neuroscience

>  <Target>
AChR antagonist

>  <Receptor>
Muscarinic AChR

>  <Reference>
1. Chen X, et al. Nucleic Acids Res. 2002 Jan 1; 30(1):412-5. 

$$$$
65473-14-5
  Mrv1561503291623562D          

 24 24  0  0  0  0            999 V2000
    0.4125    0.0000    0.0000 H   0  3  0  0  0  0  0  0  0  0  0  0
    5.8706   -1.2562    0.0000 C   0  0  0  0  0  0  0  0  0  0  0  0
    6.5850   -0.8438    0.0000 C   0  0  0  0  0  0  0  0  0  0  0  0
    6.5850   -0.0187    0.0000 C   0  0  0  0  0  0  0  0  0  0  0  0
    5.8706    0.3938    0.0000 N   0  0  0  0  0  0  0  0  0  0  0  0
    5.8706    1.2188    0.0000 C   0  0  0  0  0  0  0  0  0  0  0  0
    5.1561    1.6313    0.0000 C   0  0  0  0  0  0  0  0  0  0  0  0
    4.4416    1.2188    0.0000 C   0  0  0  0  0  0  0  0  0  0  0  0
    3.7272    1.6313    0.0000 C   0  0  0  0  0  0  0  0  0  0  0  0
    3.0127    1.2188    0.0000 C   0  0  0  0  0  0  0  0  0  0  0  0
    2.2982    1.6313    0.0000 C   0  0  0  0  0  0  0  0  0  0  0  0
    2.2982    2.4562    0.0000 C   0  0  0  0  0  0  0  0  0  0  0  0
    3.0127    2.8688    0.0000 C   0  0  0  0  0  0  0  0  0  0  0  0
    3.7272    2.4562    0.0000 C   0  0  0  0  0  0  0  0  0  0  0  0
    5.1561   -0.0187    0.0000 C   0  0  0  0  0  0  0  0  0  0  0  0
    7.2995   -1.2562    0.0000 C   0  0  0  0  0  0  0  0  0  0  0  0
    8.0140   -0.8437    0.0000 C   0  0  0  0  0  0  0  0  0  0  0  0
    8.7285   -1.2562    0.0000 C   0  0  0  0  0  0  0  0  0  0  0  0
    8.7285   -2.0812    0.0000 C   0  0  0  0  0  0  0  0  0  0  0  0
    8.0140   -2.4937    0.0000 C   0  0  0  0  0  0  0  0  0  0  0  0
    7.2995   -2.0812    0.0000 C   0  0  0  0  0  0  0  0  0  0  0  0
    6.5850   -2.4937    0.0000 C   0  0  0  0  0  0  0  0  0  0  0  0
    5.8706   -2.0812    0.0000 C   0  0  0  0  0  0  0  0  0  0  0  0
   -0.4125    0.0000    0.0000 Cl  0  5  0  0  0  0  0  0  0  0  0  0
  2  3  2  0  0  0  0
  3  4  1  0  0  0  0
  4  5  1  0  0  0  0
  5  6  1  0  0  0  0
  6  7  1  0  0  0  0
  7  8  2  0  0  0  0
  8  9  1  0  0  0  0
  9 10  2  0  0  0  0
 10 11  1  0  0  0  0
 11 12  2  0  0  0  0
 12 13  1  0  0  0  0
 13 14  2  0  0  0  0
  9 14  1  0  0  0  0
  5 15  1  0  0  0  0
  3 16  1  0  0  0  0
 16 17  2  0  0  0  0
 17 18  1  0  0  0  0
 18 19  2  0  0  0  0
 19 20  1  0  0  0  0
 20 21  2  0  0  0  0
 16 21  1  0  0  0  0
 21 22  1  0  0  0  0
 22 23  2  0  0  0  0
  2 23  1  0  0  0  0
M  CHG  2   1   1  24  -1
M  END
>  <Name>
Naftifine HCl

>  <CAS>
65473-14-5

>  <Formula>
C21H22ClN

>  <MolWt>
323.86 

>  <Bioactivity>
Naftifine is an allylamine antifungal drug for the topical treatment of tinea pedis, tinea cruris, and tinea corporis, probably involves selectively blocking sterol biosynthesis via inhibition of the squalene 2,3-epoxidase enzyme.

>  <Pathways>
Enzyme

>  <Target>
SMO inhibitor 

>  <Receptor>
SMO

>  <Reference>
1. Georgopoulos A, et al. Antimicrob Agents Chemother, 1981, 19(3), 386-389.

$$$$
T1562
  Mrv1561503291623562D          

 26 28  0  0  0  0            999 V2000
   -0.7145   -0.4125    0.0000 C   0  0  0  0  0  0  0  0  0  0  0  0
   -0.7145   -1.2375    0.0000 C   0  0  0  0  0  0  0  0  0  0  0  0
    0.0000   -1.6500    0.0000 C   0  0  0  0  0  0  0  0  0  0  0  0
    0.7145   -1.2375    0.0000 C   0  0  0  0  0  0  0  0  0  0  0  0
    0.7145   -0.4125    0.0000 C   0  0  0  0  0  0  0  0  0  0  0  0
    0.0000    0.0000    0.0000 C   0  0  0  0  0  0  0  0  0  0  0  0
    0.0000    0.8250    0.0000 C   0  0  0  0  0  0  0  0  0  0  0  0
    0.7145    1.2375    0.0000 C   0  0  0  0  0  0  0  0  0  0  0  0
    1.4289    0.8250    0.0000 C   0  0  0  0  0  0  0  0  0  0  0  0
    2.1434    1.2375    0.0000 O   0  0  0  0  0  0  0  0  0  0  0  0
    1.4289    0.0000    0.0000 N   0  0  0  0  0  0  0  0  0  0  0  0
   -0.7145    1.2375    0.0000 C   0  0  0  0  0  0  0  0  0  0  0  0
   -0.7145    2.0625    0.0000 C   0  0  0  0  0  0  0  0  0  0  0  0
   -1.4289    2.4750    0.0000 N   0  0  0  0  0  0  0  0  0  0  0  0
   -2.1434    2.0625    0.0000 C   0  0  0  0  0  0  0  0  0  0  0  0
   -2.8579    2.4750    0.0000 C   0  0  0  0  0  0  0  0  0  0  0  0
   -3.5724    2.0625    0.0000 C   0  0  0  0  0  0  0  0  0  0  0  0
   -4.2868    2.4750    0.0000 C   0  0  0  0  0  0  0  0  0  0  0  0
   -4.2868    3.3000    0.0000 C   0  0  0  0  0  0  0  0  0  0  0  0
   -5.0013    3.7125    0.0000 Cl  0  0  0  0  0  0  0  0  0  0  0  0
   -3.5724    3.7125    0.0000 C   0  0  0  0  0  0  0  0  0  0  0  0
   -2.8579    3.3000    0.0000 C   0  0  0  0  0  0  0  0  0  0  0  0
   -2.1434    1.2375    0.0000 O   0  0  0  0  0  0  0  0  0  0  0  0
    0.0000    2.4750    0.0000 C   0  0  0  0  0  0  0  0  0  0  0  0
    0.7145    2.0625    0.0000 O   0  0  0  0  0  0  0  0  0  0  0  0
    0.0000    3.3000    0.0000 O   0  0  0  0  0  0  0  0  0  0  0  0
  1  2  2  0  0  0  0
  2  3  1  0  0  0  0
  3  4  2  0  0  0  0
  4  5  1  0  0  0  0
  5  6  2  0  0  0  0
  1  6  1  0  0  0  0
  6  7  1  0  0  0  0
  7  8  2  0  0  0  0
  8  9  1  0  0  0  0
  9 10  2  0  0  0  0
  9 11  1  0  0  0  0
  5 11  1  0  0  0  0
  7 12  1  0  0  0  0
 12 13  1  0  0  0  0
 13 14  1  0  0  0  0
 14 15  1  0  0  0  0
 15 16  1  0  0  0  0
 16 17  2  0  0  0  0
 17 18  1  0  0  0  0
 18 19  2  0  0  0  0
 19 20  1  0  0  0  0
 19 21  1  0  0  0  0
 21 22  2  0  0  0  0
 16 22  1  0  0  0  0
 15 23  2  0  0  0  0
 13 24  1  0  0  0  0
 24 25  1  0  0  0  0
 24 26  2  0  0  0  0
M  END
>  <Name>
Rebamipide

>  <CAS>
90098-04-7

>  <Formula>
C19H15ClN2O4

>  <MolWt>
370.79 

>  <Bioactivity>
Rebamipide, an amino acid derivative of 2-(1H)-quinolinone, is used for mucosal protection, healing of gastroduodenal ulcers, and treatment of gastritis. It works by enhancing mucosal defense, scavenging free radicals, and temporarily activating genes encoding cyclooxygenase-2.

>  <Pathways>
Immunology/Inflammation

>  <Target>
ROS inhibitor

>  <Receptor>
Free radical scavengers

>  <Reference>
1. Matsuda T, et al. Drugs R D. 2003;4(1):19-28.

$$$$
129722-12-9
  Mrv1561503291623562D          

 30 33  0  0  0  0            999 V2000
   -1.4289   -2.4750    0.0000 C   0  0  0  0  0  0  0  0  0  0  0  0
   -2.1434   -2.8875    0.0000 C   0  0  0  0  0  0  0  0  0  0  0  0
   -2.1434   -3.7125    0.0000 C   0  0  0  0  0  0  0  0  0  0  0  0
   -1.4289   -4.1250    0.0000 C   0  0  0  0  0  0  0  0  0  0  0  0
   -0.7145   -3.7125    0.0000 C   0  0  0  0  0  0  0  0  0  0  0  0
   -0.7145   -2.8875    0.0000 C   0  0  0  0  0  0  0  0  0  0  0  0
    0.0000   -2.4750    0.0000 O   0  0  0  0  0  0  0  0  0  0  0  0
    0.7145   -2.8875    0.0000 C   0  0  0  0  0  0  0  0  0  0  0  0
    1.4289   -2.4750    0.0000 C   0  0  0  0  0  0  0  0  0  0  0  0
    2.1434   -2.8875    0.0000 C   0  0  0  0  0  0  0  0  0  0  0  0
    2.8579   -2.4750    0.0000 C   0  0  0  0  0  0  0  0  0  0  0  0
    3.5724   -2.8875    0.0000 N   0  0  0  0  0  0  0  0  0  0  0  0
    4.2868   -2.4750    0.0000 C   0  0  0  0  0  0  0  0  0  0  0  0
    5.0013   -2.8875    0.0000 C   0  0  0  0  0  0  0  0  0  0  0  0
    5.0013   -3.7125    0.0000 N   0  0  0  0  0  0  0  0  0  0  0  0
    5.7158   -4.1250    0.0000 C   0  0  0  0  0  0  0  0  0  0  0  0
    6.4302   -3.7125    0.0000 C   0  0  0  0  0  0  0  0  0  0  0  0
    7.1447   -4.1250    0.0000 C   0  0  0  0  0  0  0  0  0  0  0  0
    7.1447   -4.9500    0.0000 C   0  0  0  0  0  0  0  0  0  0  0  0
    6.4302   -5.3625    0.0000 C   0  0  0  0  0  0  0  0  0  0  0  0
    5.7158   -4.9500    0.0000 C   0  0  0  0  0  0  0  0  0  0  0  0
    5.0013   -5.3625    0.0000 Cl  0  0  0  0  0  0  0  0  0  0  0  0
    6.4302   -6.1875    0.0000 Cl  0  0  0  0  0  0  0  0  0  0  0  0
    4.2868   -4.1250    0.0000 C   0  0  0  0  0  0  0  0  0  0  0  0
    3.5724   -3.7125    0.0000 C   0  0  0  0  0  0  0  0  0  0  0  0
   -2.8579   -4.1250    0.0000 C   0  0  0  0  0  0  0  0  0  0  0  0
   -3.5724   -3.7125    0.0000 C   0  0  0  0  0  0  0  0  0  0  0  0
   -3.5724   -2.8875    0.0000 C   0  0  0  0  0  0  0  0  0  0  0  0
   -2.8579   -2.4750    0.0000 N   0  0  0  0  0  0  0  0  0  0  0  0
   -4.2868   -2.4750    0.0000 O   0  0  0  0  0  0  0  0  0  0  0  0
  1  2  2  0  0  0  0
  2  3  1  0  0  0  0
  3  4  2  0  0  0  0
  4  5  1  0  0  0  0
  5  6  2  0  0  0  0
  1  6  1  0  0  0  0
  6  7  1  0  0  0  0
  7  8  1  0  0  0  0
  8  9  1  0  0  0  0
  9 10  1  0  0  0  0
 10 11  1  0  0  0  0
 11 12  1  0  0  0  0
 12 13  1  0  0  0  0
 13 14  1  0  0  0  0
 14 15  1  0  0  0  0
 15 16  1  0  0  0  0
 16 17  2  0  0  0  0
 17 18  1  0  0  0  0
 18 19  2  0  0  0  0
 19 20  1  0  0  0  0
 20 21  2  0  0  0  0
 16 21  1  0  0  0  0
 21 22  1  0  0  0  0
 20 23  1  0  0  0  0
 15 24  1  0  0  0  0
 24 25  1  0  0  0  0
 12 25  1  0  0  0  0
  3 26  1  0  0  0  0
 26 27  1  0  0  0  0
 27 28  1  0  0  0  0
 28 29  1  0  0  0  0
  2 29  1  0  0  0  0
 28 30  2  0  0  0  0
M  END
>  <Name>
Aripiprazole

>  <CAS>
129722-12-9

>  <Formula>
C23H27Cl2N3O2

>  <MolWt>
448.39 

>  <Bioactivity>
Aripiprazole is an atypical antipsychotic medication used for the treatment of schizophrenia. It has also recently received FDA approval for the treatment of acute manic and mixed episodes associated with bipolar disorder. Aripiprazole appears to mediate its antipsychotic effects primarily by partial agonism at the D2 receptor. In addition to partial agonist activity at the D2 receptor, aripiprazole is also a partial agonist at the 5-HT1A receptor, and like the other atypical antipsychotics, aripiprazole displays an antagonist profile at the 5-HT2A receptor. Aripiprazole has moderate affinity for histamine and alpha adrenergic receptors, and no appreciable affinity for cholinergic muscarinic receptors. 

>  <Pathways>
Neuroscience

>  <Target>
5-HT Receptor antagonist;AChR antagonist;Adrenergic Receptor antagonist ;Dopamine Receptor antagonist;Histamine antagonist

>  <Receptor>
5-HT receptor ;Muscarinic AChR;Adrenergic receptor;Dopamine receptor;Histamine H1 receptor

>  <Reference>
1. Nasrallah HA. Mol Psychiatry. 2008 Jan;13(1):27-35. 

$$$$
76963-41-2
  Mrv1561503291623562D          

 21 21  0  0  0  0            999 V2000
   -1.4681    0.7481    0.0000 C   0  0  0  0  0  0  0  0  0  0  0  0
   -1.3819   -0.0724    0.0000 C   0  0  0  0  0  0  0  0  0  0  0  0
   -2.1356   -0.4080    0.0000 N   0  0  0  0  0  0  0  0  0  0  0  0
   -2.6876    0.2051    0.0000 C   0  0  0  0  0  0  0  0  0  0  0  0
   -2.2751    0.9196    0.0000 S   0  0  0  0  0  0  0  0  0  0  0  0
   -3.5081    0.1189    0.0000 C   0  0  0  0  0  0  0  0  0  0  0  0
   -3.9930    0.7863    0.0000 N   0  0  0  0  0  0  0  0  0  0  0  0
   -4.8135    0.7001    0.0000 C   0  0  0  0  0  0  0  0  0  0  0  0
   -3.6575    1.5400    0.0000 C   0  0  0  0  0  0  0  0  0  0  0  0
   -0.6674   -0.4849    0.0000 C   0  0  0  0  0  0  0  0  0  0  0  0
    0.0470   -0.0724    0.0000 S   0  0  0  0  0  0  0  0  0  0  0  0
    0.7615   -0.4849    0.0000 C   0  0  0  0  0  0  0  0  0  0  0  0
    1.4760   -0.0724    0.0000 C   0  0  0  0  0  0  0  0  0  0  0  0
    2.1904   -0.4849    0.0000 N   0  0  0  0  0  0  0  0  0  0  0  0
    2.9049   -0.0724    0.0000 C   0  0  0  0  0  0  0  0  0  0  0  0
    3.6194   -0.4849    0.0000 C   0  0  0  0  0  0  0  0  0  0  0  0
    4.3339   -0.0724    0.0000 N   0  3  0  0  0  0  0  0  0  0  0  0
    4.3339    0.7526    0.0000 O   0  0  0  0  0  0  0  0  0  0  0  0
    5.0483   -0.4849    0.0000 O   0  5  0  0  0  0  0  0  0  0  0  0
    2.9049    0.7526    0.0000 N   0  0  0  0  0  0  0  0  0  0  0  0
    3.6194    1.1651    0.0000 C   0  0  0  0  0  0  0  0  0  0  0  0
  1  2  2  0  0  0  0
  2  3  1  0  0  0  0
  3  4  2  0  0  0  0
  4  5  1  0  0  0  0
  1  5  1  0  0  0  0
  4  6  1  0  0  0  0
  6  7  1  0  0  0  0
  7  8  1  0  0  0  0
  7  9  1  0  0  0  0
  2 10  1  0  0  0  0
 10 11  1  0  0  0  0
 11 12  1  0  0  0  0
 12 13  1  0  0  0  0
 13 14  1  0  0  0  0
 14 15  1  0  0  0  0
 15 16  2  0  0  0  0
 16 17  1  0  0  0  0
 17 18  2  0  0  0  0
 17 19  1  0  0  0  0
 15 20  1  0  0  0  0
 20 21  1  0  0  0  0
M  CHG  2  17   1  19  -1
M  END
>  <Name>
Nizatidine

>  <CAS>
76963-41-2

>  <Formula>
C12H21N5O2S2

>  <MolWt>
331.46 

>  <Bioactivity>
A histamine H2 receptor antagonist with low toxicity that inhibits gastric acid secretion. The drug is used for the treatment of duodenal ulcers.

>  <Pathways>
Neuroscience

>  <Target>
ChE inhibitor;Histamine receptor antagonist

>  <Receptor>
ChE;Histamine H2 receptor

>  <Reference>
1. Lin TM, et al. J Pharmacol Exp Ther, 1986, 239(2), 406-410.

$$$$
17560-51-9
  Mrv1561503291623562D          

 24 26  0  0  0  0            999 V2000
   -0.0000    0.0000    0.0000 C   0  0  0  0  0  0  0  0  0  0  0  0
   -0.7145   -0.4125    0.0000 C   0  0  0  0  0  0  0  0  0  0  0  0
   -1.4289    0.0000    0.0000 S   0  0  0  0  0  0  0  0  0  0  0  0
   -2.1434    0.4125    0.0000 N   0  0  0  0  0  0  0  0  0  0  0  0
   -1.8414   -0.7145    0.0000 O   0  0  0  0  0  0  0  0  0  0  0  0
   -1.0164    0.7145    0.0000 O   0  0  0  0  0  0  0  0  0  0  0  0
   -0.7145   -1.2375    0.0000 C   0  0  0  0  0  0  0  0  0  0  0  0
   -0.0000   -1.6500    0.0000 C   0  0  0  0  0  0  0  0  0  0  0  0
    0.7145   -1.2375    0.0000 C   0  0  0  0  0  0  0  0  0  0  0  0
    0.7145   -0.4125    0.0000 C   0  0  0  0  0  0  0  0  0  0  0  0
    1.4289    0.0000    0.0000 C   0  0  0  0  0  0  0  0  0  0  0  0
    2.1434   -0.4125    0.0000 N   0  0  0  0  0  0  0  0  0  0  0  0
    2.8579    0.0000    0.0000 C   0  0  0  0  0  0  0  0  0  0  0  0
    2.8579    0.8250    0.0000 C   0  0  0  0  0  0  0  0  0  0  0  0
    3.5724    1.2375    0.0000 C   0  0  0  0  0  0  0  0  0  0  0  0
    4.2868    0.8250    0.0000 C   0  0  0  0  0  0  0  0  0  0  0  0
    4.2868   -0.0000    0.0000 C   0  0  0  0  0  0  0  0  0  0  0  0
    3.5724   -0.4125    0.0000 C   0  0  0  0  0  0  0  0  0  0  0  0
    2.1434    1.2375    0.0000 C   0  0  0  0  0  0  0  0  0  0  0  0
    2.1434   -1.2375    0.0000 C   0  0  0  0  0  0  0  0  0  0  0  0
    1.4289   -1.6500    0.0000 N   0  0  0  0  0  0  0  0  0  0  0  0
    2.8579   -1.6500    0.0000 C   0  0  0  0  0  0  0  0  0  0  0  0
    1.4289    0.8250    0.0000 O   0  0  0  0  0  0  0  0  0  0  0  0
   -1.4289   -1.6500    0.0000 Cl  0  0  0  0  0  0  0  0  0  0  0  0
  1  2  2  0  0  0  0
  2  3  1  0  0  0  0
  3  4  1  0  0  0  0
  3  5  2  0  0  0  0
  3  6  2  0  0  0  0
  2  7  1  0  0  0  0
  7  8  2  0  0  0  0
  8  9  1  0  0  0  0
  9 10  2  0  0  0  0
  1 10  1  0  0  0  0
 10 11  1  0  0  0  0
 11 12  1  0  0  0  0
 12 13  1  0  0  0  0
 13 14  2  0  0  0  0
 14 15  1  0  0  0  0
 15 16  2  0  0  0  0
 16 17  1  0  0  0  0
 17 18  2  0  0  0  0
 13 18  1  0  0  0  0
 14 19  1  0  0  0  0
 12 20  1  0  0  0  0
 20 21  1  0  0  0  0
  9 21  1  0  0  0  0
 20 22  1  0  0  0  0
 11 23  2  0  0  0  0
  7 24  1  0  0  0  0
M  END
>  <Name>
Metolazone

>  <CAS>
17560-51-9

>  <Formula>
C16H16ClN3O3S

>  <MolWt>
365.83 

>  <Bioactivity>
Metolazone(Zaroxolyn) is primarily used to treat congestive heart failure and high blood pressure.

>  <Pathways>
Membrane Transporter/Ion Channel

>  <Target>
Sodium Channel inhibitor

>  <Receptor>
Na+/Cl- symporter

>  <Reference>
1. Rosenberg J, et al. Cardiovasc Drugs Ther. 2005 Aug;19(4):301-6.

$$$$
59804-37-4
  Mrv1561503291623562D          

 22 24  0  0  0  0            999 V2000
   -0.1435   -0.0305    0.0000 C   0  0  0  0  0  0  0  0  0  0  0  0
   -0.6284   -0.6979    0.0000 C   0  0  0  0  0  0  0  0  0  0  0  0
   -0.1435   -1.3654    0.0000 S   0  0  0  0  0  0  0  0  0  0  0  0
    0.6411   -1.1104    0.0000 C   0  0  0  0  0  0  0  0  0  0  0  0
    0.6411   -0.2854    0.0000 C   0  0  0  0  0  0  0  0  0  0  0  0
    1.3556    0.1271    0.0000 S   0  0  0  0  0  0  0  0  0  0  0  0
    0.8253    0.7590    0.0000 O   0  0  0  0  0  0  0  0  0  0  0  0
    1.8859    0.7590    0.0000 O   0  0  0  0  0  0  0  0  0  0  0  0
    2.0701   -0.2854    0.0000 N   0  0  0  0  0  0  0  0  0  0  0  0
    2.0701   -1.1104    0.0000 C   0  0  0  0  0  0  0  0  0  0  0  0
    1.3556   -1.5229    0.0000 C   0  0  0  0  0  0  0  0  0  0  0  0
    1.3556   -2.3479    0.0000 O   0  0  0  0  0  0  0  0  0  0  0  0
    2.7845   -1.5229    0.0000 C   0  0  0  0  0  0  0  0  0  0  0  0
    3.4990   -1.1104    0.0000 O   0  0  0  0  0  0  0  0  0  0  0  0
    2.7845   -2.3479    0.0000 N   0  0  0  0  0  0  0  0  0  0  0  0
    3.4990   -2.7604    0.0000 C   0  0  0  0  0  0  0  0  0  0  0  0
    3.4990   -3.5854    0.0000 C   0  0  0  0  0  0  0  0  0  0  0  0
    4.2135   -3.9979    0.0000 C   0  0  0  0  0  0  0  0  0  0  0  0
    4.9279   -3.5854    0.0000 C   0  0  0  0  0  0  0  0  0  0  0  0
    4.9279   -2.7604    0.0000 C   0  0  0  0  0  0  0  0  0  0  0  0
    4.2135   -2.3479    0.0000 N   0  0  0  0  0  0  0  0  0  0  0  0
    2.7845    0.1271    0.0000 C   0  0  0  0  0  0  0  0  0  0  0  0
  1  2  2  0  0  0  0
  2  3  1  0  0  0  0
  3  4  1  0  0  0  0
  4  5  2  0  0  0  0
  1  5  1  0  0  0  0
  5  6  1  0  0  0  0
  6  7  2  0  0  0  0
  6  8  2  0  0  0  0
  6  9  1  0  0  0  0
  9 10  1  0  0  0  0
 10 11  1  0  0  0  0
  4 11  1  0  0  0  0
 11 12  2  0  0  0  0
 10 13  2  0  0  0  0
 13 14  1  0  0  0  0
 13 15  1  0  0  0  0
 15 16  1  0  0  0  0
 16 17  2  0  0  0  0
 17 18  1  0  0  0  0
 18 19  2  0  0  0  0
 19 20  1  0  0  0  0
 20 21  2  0  0  0  0
 16 21  1  0  0  0  0
  9 22  1  0  0  0  0
M  END
>  <Name>
Tenoxicam

>  <CAS>
59804-37-4

>  <Formula>
C13H11N3O4S2

>  <MolWt>
337.37 

>  <Bioactivity>
Tenoxicam, an antiinflammatory agent with analgesic and antipyretic properties, is used to treat osteoarthritis and control acute pain.

>  <Pathways>
Neuroscience

>  <Target>
COX inhibitor

>  <Receptor>
Prostaglandin G/H synthase

>  <Reference>
1. Yamada M, et al. J Pharmacol Exp Ther. 1997 May;281(2):1005-12.

$$$$
T1615
  Mrv1561503291623562D          

 32 36  0  0  0  0            999 V2000
    0.1725    2.4660    0.0000 C   0  0  0  0  0  0  0  0  0  0  0  0
   -0.5812    2.1304    0.0000 C   0  0  0  0  0  0  0  0  0  0  0  0
   -0.6674    1.3099    0.0000 C   0  0  0  0  0  0  0  0  0  0  0  0
    0.0000    0.8250    0.0000 N   0  0  0  0  0  0  0  0  0  0  0  0
    0.7846    1.0799    0.0000 C   0  0  0  0  0  0  0  0  0  0  0  0
    1.0396    1.8646    0.0000 O   0  0  0  0  0  0  0  0  0  0  0  0
    1.2695    0.4125    0.0000 C   0  0  0  0  0  0  0  0  0  0  0  0
    0.7846   -0.2549    0.0000 N   0  0  0  0  0  0  0  0  0  0  0  0
   -0.0000   -0.0000    0.0000 C   0  0  0  0  0  0  0  0  0  0  0  0
   -0.6674   -0.4849    0.0000 C   0  0  0  0  0  0  0  0  0  0  0  0
   -0.5812   -1.3054    0.0000 C   0  0  0  0  0  0  0  0  0  0  0  0
   -1.2486   -1.7903    0.0000 C   0  0  0  0  0  0  0  0  0  0  0  0
   -1.1624   -2.6108    0.0000 C   0  0  0  0  0  0  0  0  0  0  0  0
    1.7545    1.0799    0.0000 C   0  0  0  0  0  0  0  0  0  0  0  0
    2.5391    0.8250    0.0000 C   0  0  0  0  0  0  0  0  0  0  0  0
    2.5391   -0.0000    0.0000 C   0  0  0  0  0  0  0  0  0  0  0  0
    1.7545   -0.2549    0.0000 C   0  0  0  0  0  0  0  0  0  0  0  0
   -1.2486    2.6153    0.0000 C   0  0  0  0  0  0  0  0  0  0  0  0
   -1.1624    3.4358    0.0000 C   0  0  0  0  0  0  0  0  0  0  0  0
   -0.4087    3.7714    0.0000 C   0  0  0  0  0  0  0  0  0  0  0  0
    0.2587    3.2864    0.0000 C   0  0  0  0  0  0  0  0  0  0  0  0
   -0.3225    4.5918    0.0000 C   0  0  0  0  0  0  0  0  0  0  0  0
   -0.9899    5.0768    0.0000 C   0  0  0  0  0  0  0  0  0  0  0  0
   -0.9037    5.8972    0.0000 C   0  0  0  0  0  0  0  0  0  0  0  0
   -0.1500    6.2328    0.0000 C   0  0  0  0  0  0  0  0  0  0  0  0
    0.5174    5.7479    0.0000 C   0  0  0  0  0  0  0  0  0  0  0  0
    0.4312    4.9274    0.0000 C   0  0  0  0  0  0  0  0  0  0  0  0
    1.0986    4.4425    0.0000 C   0  0  0  0  0  0  0  0  0  0  0  0
    1.8832    4.6974    0.0000 N   0  0  0  0  0  0  0  0  0  0  0  0
    2.3682    4.0300    0.0000 N   0  0  0  0  0  0  0  0  0  0  0  0
    1.8832    3.3625    0.0000 N   0  0  0  0  0  0  0  0  0  0  0  0
    1.0986    3.6175    0.0000 N   0  0  0  0  0  0  0  0  0  0  0  0
  1  2  2  0  0  0  0
  2  3  1  0  0  0  0
  3  4  1  0  0  0  0
  4  5  1  0  0  0  0
  5  6  2  0  0  0  0
  5  7  1  0  0  0  0
  7  8  1  0  0  0  0
  8  9  2  0  0  0  0
  4  9  1  0  0  0  0
  9 10  1  0  0  0  0
 10 11  1  0  0  0  0
 11 12  1  0  0  0  0
 12 13  1  0  0  0  0
  7 14  1  0  0  0  0
 14 15  1  0  0  0  0
 15 16  1  0  0  0  0
 16 17  1  0  0  0  0
  7 17  1  0  0  0  0
  2 18  1  0  0  0  0
 18 19  2  0  0  0  0
 19 20  1  0  0  0  0
 20 21  2  0  0  0  0
  1 21  1  0  0  0  0
 20 22  1  0  0  0  0
 22 23  2  0  0  0  0
 23 24  1  0  0  0  0
 24 25  2  0  0  0  0
 25 26  1  0  0  0  0
 26 27  2  0  0  0  0
 22 27  1  0  0  0  0
 27 28  1  0  0  0  0
 28 29  2  0  0  0  0
 29 30  1  0  0  0  0
 30 31  1  0  0  0  0
 31 32  2  0  0  0  0
 28 32  1  0  0  0  0
M  END
>  <Name>
Irbesartan

>  <CAS>
138402-11-6

>  <Formula>
C25H28N6O

>  <MolWt>
428.54 

>  <Bioactivity>
Irbesartan is an angiotensin receptor blocker (ARB) used mainly for the treatment of hypertension. It competes with angiotensin II for binding at the AT1 receptor subtype. Unlike ACE inhibitors, ARBs do not have the adverse effect of dry cough. The use of ARBs is pending revision due to findings from several clinical trials suggesting that this class of drugs may be associated with a small increased risk of cancer. 

>  <Pathways>
Angiogenesis

>  <Target>
AGTR inhibitor;Transcription factor AP-1

>  <Receptor>
AGTR1;Transcription factor AP-1

>  <Reference>
1. Bernhart CA, et al. J Med Chem, 1993, 36(22), 3371-3380.

$$$$
T1617
  Mrv1561503291623562D          

 26 29  0  0  0  0            999 V2000
   -0.0000    0.0000    0.0000 C   0  0  0  0  0  0  0  0  0  0  0  0
   -0.7145   -0.4125    0.0000 C   0  0  0  0  0  0  0  0  0  0  0  0
   -1.4289    0.0000    0.0000 N   0  0  0  0  0  0  0  0  0  0  0  0
   -2.1434   -0.4125    0.0000 C   0  0  0  0  0  0  0  0  0  0  0  0
   -2.8579   -0.0000    0.0000 C   0  0  0  0  0  0  0  0  0  0  0  0
   -2.8579    0.8250    0.0000 N   0  0  0  0  0  0  0  0  0  0  0  0
   -3.5724    1.2375    0.0000 C   0  0  0  0  0  0  0  0  0  0  0  0
   -3.5724    2.0625    0.0000 C   0  0  0  0  0  0  0  0  0  0  0  0
   -2.1434    1.2375    0.0000 C   0  0  0  0  0  0  0  0  0  0  0  0
   -1.4289    0.8250    0.0000 C   0  0  0  0  0  0  0  0  0  0  0  0
   -0.7145   -1.2375    0.0000 C   0  0  0  0  0  0  0  0  0  0  0  0
   -0.0000   -1.6500    0.0000 C   0  0  0  0  0  0  0  0  0  0  0  0
    0.7145   -1.2375    0.0000 C   0  0  0  0  0  0  0  0  0  0  0  0
    0.7145   -0.4125    0.0000 C   0  0  0  0  0  0  0  0  0  0  0  0
    1.4289    0.0000    0.0000 N   0  0  0  0  0  0  0  0  0  0  0  0
    1.4289    0.8250    0.0000 C   0  0  0  0  0  0  0  0  0  0  0  0
    1.0164    1.5395    0.0000 C   0  0  0  0  0  0  0  0  0  0  0  0
    1.8414    1.5395    0.0000 C   0  0  0  0  0  0  0  0  0  0  0  0
    2.1434   -0.4125    0.0000 C   0  0  0  0  0  0  0  0  0  0  0  0
    2.1434   -1.2375    0.0000 C   0  0  0  0  0  0  0  0  0  0  0  0
    2.8579   -1.6500    0.0000 C   0  0  0  0  0  0  0  0  0  0  0  0
    3.5724   -1.2375    0.0000 O   0  0  0  0  0  0  0  0  0  0  0  0
    2.8579   -2.4750    0.0000 O   0  0  0  0  0  0  0  0  0  0  0  0
    1.4289   -1.6500    0.0000 C   0  0  0  0  0  0  0  0  0  0  0  0
    1.4289   -2.4750    0.0000 O   0  0  0  0  0  0  0  0  0  0  0  0
   -1.4289   -1.6500    0.0000 F   0  0  0  0  0  0  0  0  0  0  0  0
  1  2  2  0  0  0  0
  2  3  1  0  0  0  0
  3  4  1  0  0  0  0
  4  5  1  0  0  0  0
  5  6  1  0  0  0  0
  6  7  1  0  0  0  0
  7  8  1  0  0  0  0
  6  9  1  0  0  0  0
  9 10  1  0  0  0  0
  3 10  1  0  0  0  0
  2 11  1  0  0  0  0
 11 12  2  0  0  0  0
 12 13  1  0  0  0  0
 13 14  2  0  0  0  0
  1 14  1  0  0  0  0
 14 15  1  0  0  0  0
 15 16  1  0  0  0  0
 16 17  1  0  0  0  0
 17 18  1  0  0  0  0
 16 18  1  0  0  0  0
 15 19  1  0  0  0  0
 19 20  2  0  0  0  0
 20 21  1  0  0  0  0
 21 22  1  0  0  0  0
 21 23  2  0  0  0  0
 20 24  1  0  0  0  0
 13 24  1  0  0  0  0
 24 25  2  0  0  0  0
 11 26  1  0  0  0  0
M  END
>  <Name>
Enrofloxacin

>  <CAS>
93106-60-6

>  <Formula>
C19H22FN3O3

>  <MolWt>
359.40 

>  <Bioactivity>
Enrofloxacin is a fluoroquinolone antibiotic. Enrofloxacin is a synthetic chemotherapeutic agent from the class of the fluoroquinolone carboxylic acid derivatives. It has antibacterial activity against a broad spectrum of Gram-negative and Gram-positive bacteria. 

>  <Pathways>
DNA Damage/DNA Repair;Microbiology & Virology

>  <Target>
Antibiotic; DNA/RNA Synthesis inhibitor

>  <Receptor>
DNA synthesis

>  <Reference>
1. Prescott JF, et al. Can J Vet Res, 1990, 54(1), 195-197.

$$$$
25332-39-2
  Mrv1561503291623562D          

 28 29  0  0  0  0            999 V2000
    0.4125    0.0000    0.0000 H   0  3  0  0  0  0  0  0  0  0  0  0
    3.5357   -1.9245    0.0000 C   0  0  0  0  0  0  0  0  0  0  0  0
    4.3607   -1.9245    0.0000 C   0  0  0  0  0  0  0  0  0  0  0  0
    4.7732   -1.2100    0.0000 N   0  0  0  0  0  0  0  0  0  0  0  0
    4.3607   -0.4955    0.0000 C   0  0  0  0  0  0  0  0  0  0  0  0
    4.7732    0.2189    0.0000 C   0  0  0  0  0  0  0  0  0  0  0  0
    5.5982    0.2189    0.0000 N   0  0  0  0  0  0  0  0  0  0  0  0
    6.0107   -0.4955    0.0000 C   0  0  0  0  0  0  0  0  0  0  0  0
    5.5982   -1.2100    0.0000 C   0  0  0  0  0  0  0  0  0  0  0  0
    6.0107    0.9334    0.0000 C   0  0  0  0  0  0  0  0  0  0  0  0
    6.8357    0.9334    0.0000 C   0  0  0  0  0  0  0  0  0  0  0  0
    7.2482    1.6479    0.0000 C   0  0  0  0  0  0  0  0  0  0  0  0
    8.0732    1.6479    0.0000 N   0  0  0  0  0  0  0  0  0  0  0  0
    8.5581    0.9805    0.0000 N   0  0  0  0  0  0  0  0  0  0  0  0
    9.3428    1.2354    0.0000 C   0  0  0  0  0  0  0  0  0  0  0  0
    9.3428    2.0604    0.0000 N   0  0  0  0  0  0  0  0  0  0  0  0
    8.5581    2.3153    0.0000 C   0  0  0  0  0  0  0  0  0  0  0  0
    8.3032    3.1000    0.0000 O   0  0  0  0  0  0  0  0  0  0  0  0
   10.0572    2.4729    0.0000 C   0  0  0  0  0  0  0  0  0  0  0  0
   10.7717    2.0604    0.0000 C   0  0  0  0  0  0  0  0  0  0  0  0
   10.7717    1.2354    0.0000 C   0  0  0  0  0  0  0  0  0  0  0  0
   10.0572    0.8229    0.0000 C   0  0  0  0  0  0  0  0  0  0  0  0
    4.7732   -2.6389    0.0000 C   0  0  0  0  0  0  0  0  0  0  0  0
    4.3607   -3.3534    0.0000 C   0  0  0  0  0  0  0  0  0  0  0  0
    3.5357   -3.3534    0.0000 C   0  0  0  0  0  0  0  0  0  0  0  0
    3.1232   -2.6389    0.0000 C   0  0  0  0  0  0  0  0  0  0  0  0
    2.2982   -2.6389    0.0000 Cl  0  0  0  0  0  0  0  0  0  0  0  0
   -0.4125    0.0000    0.0000 Cl  0  5  0  0  0  0  0  0  0  0  0  0
  2  3  2  0  0  0  0
  3  4  1  0  0  0  0
  4  5  1  0  0  0  0
  5  6  1  0  0  0  0
  6  7  1  0  0  0  0
  7  8  1  0  0  0  0
  8  9  1  0  0  0  0
  4  9  1  0  0  0  0
  7 10  1  0  0  0  0
 10 11  1  0  0  0  0
 11 12  1  0  0  0  0
 12 13  1  0  0  0  0
 13 14  1  0  0  0  0
 14 15  2  0  0  0  0
 15 16  1  0  0  0  0
 16 17  1  0  0  0  0
 13 17  1  0  0  0  0
 17 18  2  0  0  0  0
 16 19  1  0  0  0  0
 19 20  2  0  0  0  0
 20 21  1  0  0  0  0
 21 22  2  0  0  0  0
 15 22  1  0  0  0  0
  3 23  1  0  0  0  0
 23 24  2  0  0  0  0
 24 25  1  0  0  0  0
 25 26  2  0  0  0  0
  2 26  1  0  0  0  0
 26 27  1  0  0  0  0
M  CHG  2   1   1  28  -1
M  END
>  <Name>
Trazodone HCl

>  <CAS>
25332-39-2

>  <Formula>
C19H23Cl2N5O

>  <MolWt>
408.33 

>  <Bioactivity>
A serotonin uptake inhibitor that is used as an antidepressive agent. It has been shown to be effective in patients with major depressive disorders and other subsets of depressive disorders. It is generally more useful in depressive disorders associated with insomnia and anxiety. This drug does not aggravate psychotic symptoms in patients with schizophrenia or schizoaffective disorders. (From AMA Drug Evaluations Annual, 1994, p309) 

>  <Pathways>
Neuroscience

>  <Target>
Serotonin uptake inhibitor;5-HT receptor antagonist;Adrenergic Receptor antagonist ;Histamine Receptor

>  <Receptor>
Sodium-dependent serotonin transporter;5-HT receptor;Adrenergic receptor;Histamine H1 receptor

>  <Reference>
1. Marcoli M, et al. J Pharmacol Exp Ther. 2001 Dec; 299(3):1106-11.

$$$$
114-80-7
  Mrv1561503291623562D          

 17 16  0  0  0  0            999 V2000
   -0.2233    0.1805    0.0000 C   0  0  0  0  0  0  0  0  0  0  0  0
   -0.2233   -0.6445    0.0000 C   0  0  0  0  0  0  0  0  0  0  0  0
   -0.9377   -1.0570    0.0000 C   0  0  0  0  0  0  0  0  0  0  0  0
   -1.6522   -0.6445    0.0000 C   0  0  0  0  0  0  0  0  0  0  0  0
   -1.6522    0.1805    0.0000 C   0  0  0  0  0  0  0  0  0  0  0  0
   -0.9377    0.5930    0.0000 C   0  0  0  0  0  0  0  0  0  0  0  0
   -0.9377    1.4180    0.0000 N   0  3  0  0  0  0  0  0  0  0  0  0
   -0.9377    2.2430    0.0000 C   0  0  0  0  0  0  0  0  0  0  0  0
   -1.7627    1.4180    0.0000 C   0  0  0  0  0  0  0  0  0  0  0  0
   -0.1127    1.4180    0.0000 C   0  0  0  0  0  0  0  0  0  0  0  0
    0.4912   -1.0570    0.0000 O   0  0  0  0  0  0  0  0  0  0  0  0
    1.2057   -0.6445    0.0000 C   0  0  0  0  0  0  0  0  0  0  0  0
    1.9201   -1.0570    0.0000 N   0  0  0  0  0  0  0  0  0  0  0  0
    2.6346   -0.6445    0.0000 C   0  0  0  0  0  0  0  0  0  0  0  0
    1.9201   -1.8820    0.0000 C   0  0  0  0  0  0  0  0  0  0  0  0
    1.2057    0.1805    0.0000 O   0  0  0  0  0  0  0  0  0  0  0  0
    4.9918    0.0000    0.0000 Br  0  5  0  0  0  0  0  0  0  0  0  0
  1  2  2  0  0  0  0
  2  3  1  0  0  0  0
  3  4  2  0  0  0  0
  4  5  1  0  0  0  0
  5  6  2  0  0  0  0
  1  6  1  0  0  0  0
  6  7  1  0  0  0  0
  7  8  1  0  0  0  0
  7  9  1  0  0  0  0
  7 10  1  0  0  0  0
  2 11  1  0  0  0  0
 11 12  1  0  0  0  0
 12 13  1  0  0  0  0
 13 14  1  0  0  0  0
 13 15  1  0  0  0  0
 12 16  2  0  0  0  0
M  CHG  2   7   1  17  -1
M  END
>  <Name>
Neostigmine bromide

>  <CAS>
114-80-7

>  <Formula>
C12H19BrN2O2

>  <MolWt>
303.20 

>  <Bioactivity>
Neostigmine bromide(Prostigmin) is a reversible acetylcholinesterase inhibitor and a parasympatho-mimetic. By interfering with the breakdown of acetylcholine, neostigmine indirectly stimulates both nicotinic and muscarinic receptors. It binds to the anionic site of cholinesterase. The drug blocks the active site of acetylcholinesterase so the enzyme can no longer break down the acetylcholine molecules before they reach the postsynaptic membrane receptors. This allows for the threshold to be reached so a new impulse can be triggered in the next neuron. In myasthenia gravis there are too few acetylcholine receptors so with the acetylcholinesterase blocked, acetylcholine can bind to the few receptors and trigger a muscular contraction.

>  <Pathways>
Neuroscience

>  <Target>
AChE inhibitor

>  <Receptor>
AChE

>  <Reference>
1. Trevisani GT, et al. Dis Colon Rectum. 2000 May;43(5):599-603. 

$$$$
76824-35-6
  Mrv1561503291623562D          

 20 20  0  0  0  0            999 V2000
   -3.6037    0.1862    0.0000 C   0  0  0  0  0  0  0  0  0  0  0  0
   -2.8501   -0.1494    0.0000 C   0  0  0  0  0  0  0  0  0  0  0  0
   -2.9363   -0.9698    0.0000 N   0  0  0  0  0  0  0  0  0  0  0  0
   -3.7433   -1.1414    0.0000 C   0  0  0  0  0  0  0  0  0  0  0  0
   -4.1558   -0.4269    0.0000 S   0  0  0  0  0  0  0  0  0  0  0  0
   -4.0788   -1.8950    0.0000 N   0  0  0  0  0  0  0  0  0  0  0  0
   -4.8993   -1.9813    0.0000 C   0  0  0  0  0  0  0  0  0  0  0  0
   -5.2349   -2.7350    0.0000 N   0  0  0  0  0  0  0  0  0  0  0  0
   -5.3842   -1.3138    0.0000 N   0  0  0  0  0  0  0  0  0  0  0  0
   -2.1356    0.2631    0.0000 C   0  0  0  0  0  0  0  0  0  0  0  0
   -1.4211   -0.1494    0.0000 S   0  0  0  0  0  0  0  0  0  0  0  0
   -0.7066    0.2631    0.0000 C   0  0  0  0  0  0  0  0  0  0  0  0
    0.0078   -0.1494    0.0000 C   0  0  0  0  0  0  0  0  0  0  0  0
    0.7223    0.2631    0.0000 C   0  0  0  0  0  0  0  0  0  0  0  0
    1.4368   -0.1494    0.0000 N   0  0  0  0  0  0  0  0  0  0  0  0
    2.1512    0.2631    0.0000 S   0  0  0  0  0  0  0  0  0  0  0  0
    2.8657    0.6756    0.0000 O   0  0  0  0  0  0  0  0  0  0  0  0
    2.5637   -0.4513    0.0000 O   0  0  0  0  0  0  0  0  0  0  0  0
    1.7387    0.9776    0.0000 N   0  0  0  0  0  0  0  0  0  0  0  0
    0.7223    1.0881    0.0000 N   0  0  0  0  0  0  0  0  0  0  0  0
  1  2  2  0  0  0  0
  2  3  1  0  0  0  0
  3  4  2  0  0  0  0
  4  5  1  0  0  0  0
  1  5  1  0  0  0  0
  4  6  1  0  0  0  0
  6  7  2  0  0  0  0
  7  8  1  0  0  0  0
  7  9  1  0  0  0  0
  2 10  1  0  0  0  0
 10 11  1  0  0  0  0
 11 12  1  0  0  0  0
 12 13  1  0  0  0  0
 13 14  1  0  0  0  0
 14 15  2  0  0  0  0
 15 16  1  4  0  0  0
 16 17  2  0  0  0  0
 16 18  2  0  0  0  0
 16 19  1  0  0  0  0
 14 20  1  0  0  0  0
M  END
>  <Name>
Famotidine

>  <CAS>
76824-35-6

>  <Formula>
C8H15N7O2S3

>  <MolWt>
337.45 

>  <Bioactivity>
A competitive histamine H2-receptor antagonist. Its main pharmacodynamic effect is the inhibition of gastric secretion.

>  <Pathways>
Neuroscience

>  <Target>
Histamine Receptor antagonist

>  <Receptor>
Histamine H2 receptor

>  <Reference>
1. Takahashi HK, et al. Mol Pharmacol. 2006 Aug;70(2):450-3.

$$$$
T2392
  Mrv1561503291623562D          

 36 36  0  0  0  0            999 V2000
    0.0000   -0.8250    0.0000 C   0  0  0  0  0  0  0  0  0  0  0  0
    0.0000    0.0000    0.0000 S   0  0  0  0  0  0  0  0  0  0  0  0
    0.0000    0.8250    0.0000 O   0  5  0  0  0  0  0  0  0  0  0  0
    0.8250   -0.0000    0.0000 O   0  0  0  0  0  0  0  0  0  0  0  0
   -0.8250    0.0000    0.0000 O   0  0  0  0  0  0  0  0  0  0  0  0
    3.4179   -0.8250    0.0000 C   0  0  0  0  0  0  0  0  0  0  0  0
    3.4179    0.0000    0.0000 S   0  0  0  0  0  0  0  0  0  0  0  0
    3.4179    0.8250    0.0000 O   0  5  0  0  0  0  0  0  0  0  0  0
    4.2429   -0.0000    0.0000 O   0  0  0  0  0  0  0  0  0  0  0  0
    2.5929    0.0000    0.0000 O   0  0  0  0  0  0  0  0  0  0  0  0
   -2.2533   -3.3000    0.0000 C   0  0  0  0  0  0  0  0  0  0  0  0
   -2.9678   -3.7125    0.0000 C   0  0  0  0  0  0  0  0  0  0  0  0
   -2.9678   -4.5375    0.0000 C   0  0  0  0  0  0  0  0  0  0  0  0
   -2.2533   -4.9500    0.0000 C   0  0  0  0  0  0  0  0  0  0  0  0
   -1.5389   -4.5375    0.0000 C   0  0  0  0  0  0  0  0  0  0  0  0
   -1.5389   -3.7125    0.0000 C   0  0  0  0  0  0  0  0  0  0  0  0
   -0.8244   -3.3000    0.0000 C   0  0  0  0  0  0  0  0  0  0  0  0
   -0.1099   -3.7125    0.0000 C   0  0  0  0  0  0  0  0  0  0  0  0
   -0.1099   -4.5375    0.0000 C   0  0  0  0  0  0  0  0  0  0  0  0
   -0.8244   -4.9500    0.0000 C   0  0  0  0  0  0  0  0  0  0  0  0
    0.6046   -4.9500    0.0000 O   0  0  0  0  0  0  0  0  0  0  0  0
    0.6046   -5.7750    0.0000 C   0  0  0  0  0  0  0  0  0  0  0  0
   -0.1099   -6.1875    0.0000 O   0  0  0  0  0  0  0  0  0  0  0  0
    1.3190   -6.1875    0.0000 C   0  0  0  0  0  0  0  0  0  0  0  0
    2.0335   -5.7750    0.0000 C   0  0  0  0  0  0  0  0  0  0  0  0
    2.7480   -6.1875    0.0000 C   0  0  0  0  0  0  0  0  0  0  0  0
    2.7480   -7.0125    0.0000 C   0  0  0  0  0  0  0  0  0  0  0  0
    3.4624   -7.4250    0.0000 N   0  0  0  0  0  0  0  0  0  0  0  0
    3.4624   -8.2500    0.0000 C   0  0  0  0  0  0  0  0  0  0  0  0
    4.1769   -8.6625    0.0000 N   0  3  0  0  0  0  0  0  0  0  0  0
    2.7480   -8.6625    0.0000 N   0  0  0  0  0  0  0  0  0  0  0  0
    2.0335   -7.4250    0.0000 C   0  0  0  0  0  0  0  0  0  0  0  0
    1.3190   -7.0125    0.0000 C   0  0  0  0  0  0  0  0  0  0  0  0
   -3.6823   -3.3000    0.0000 C   0  0  0  0  0  0  0  0  0  0  0  0
   -4.3967   -3.7125    0.0000 N   0  3  0  0  0  0  0  0  0  0  0  0
   -3.6823   -2.4750    0.0000 N   0  0  0  0  0  0  0  0  0  0  0  0
  1  2  1  0  0  0  0
  2  3  1  0  0  0  0
  2  4  2  0  0  0  0
  2  5  2  0  0  0  0
  6  7  1  0  0  0  0
  7  8  1  0  0  0  0
  7  9  2  0  0  0  0
  7 10  2  0  0  0  0
 11 12  2  0  0  0  0
 12 13  1  0  0  0  0
 13 14  2  0  0  0  0
 14 15  1  0  0  0  0
 15 16  2  0  0  0  0
 11 16  1  0  0  0  0
 16 17  1  0  0  0  0
 17 18  2  0  0  0  0
 18 19  1  0  0  0  0
 19 20  2  0  0  0  0
 15 20  1  0  0  0  0
 19 21  1  0  0  0  0
 21 22  1  0  0  0  0
 22 23  2  0  0  0  0
 22 24  1  0  0  0  0
 24 25  2  0  0  0  0
 25 26  1  0  0  0  0
 26 27  2  0  0  0  0
 28 27  1  4  0  0  0
 28 29  2  0  0  0  0
 29 30  1  0  0  0  0
 29 31  1  0  0  0  0
 27 32  1  0  0  0  0
 32 33  2  0  0  0  0
 24 33  1  0  0  0  0
 12 34  1  0  0  0  0
 34 35  1  0  0  0  0
 34 36  2  0  0  0  0
M  CHG  4   3  -1   8  -1  30   1  35   1
M  END
>  <Name>
Nafamostat mesylate

>  <CAS>
82956-11-4

>  <Formula>
C19H17N5O2.2CH4O3S

>  <MolWt>
539.58 

>  <Bioactivity>
Nafamostat mesilate is a synthetic serine protease inhibitor, used as an anticoagulant during hemodialysis.

>  <Pathways>
Proteases/Proteasome

>  <Target>
Serine Protease inhibitor

>  <Receptor>
Serine protease

>  <Reference>
1. Sundaram S, et al. Thromb Haemost, 1996, 75(1), 76-82.

$$$$
364782-34-3
  Mrv1561503291623562D          

 28 28  0  0  1  0            999 V2000
   -1.4839    0.2538    0.0000 C   0  0  0  0  0  0  0  0  0  0  0  0
   -0.7694   -0.1587    0.0000 N   0  0  0  0  0  0  0  0  0  0  0  0
   -0.0550    0.2538    0.0000 C   0  0  0  0  0  0  0  0  0  0  0  0
    0.6595   -0.1587    0.0000 C   0  0  0  0  0  0  0  0  0  0  0  0
    1.3740    0.2538    0.0000 C   0  0  0  0  0  0  0  0  0  0  0  0
    2.0885   -0.1587    0.0000 C   0  0  0  0  0  0  0  0  0  0  0  0
    2.8029    0.2538    0.0000 C   0  0  0  0  0  0  0  0  0  0  0  0
    3.5174   -0.1587    0.0000 C   0  0  0  0  0  0  0  0  0  0  0  0
    3.5174   -0.9837    0.0000 C   0  0  0  0  0  0  0  0  0  0  0  0
    2.8029   -1.3962    0.0000 C   0  0  0  0  0  0  0  0  0  0  0  0
    2.0885   -0.9837    0.0000 C   0  0  0  0  0  0  0  0  0  0  0  0
    4.2319    0.2538    0.0000 C   0  0  0  0  0  0  0  0  0  0  0  0
    4.9463    0.6663    0.0000 F   0  0  0  0  0  0  0  0  0  0  0  0
    3.8194    0.9683    0.0000 F   0  0  0  0  0  0  0  0  0  0  0  0
    4.6444   -0.4606    0.0000 F   0  0  0  0  0  0  0  0  0  0  0  0
   -2.1984   -0.1587    0.0000 C   0  0  0  0  0  0  0  0  0  0  0  0
   -2.9128    0.2538    0.0000 C   0  0  0  0  0  0  0  0  0  0  0  0
   -3.6273   -0.1587    0.0000 C   0  0  0  0  0  0  0  0  0  0  0  0
   -3.6273   -0.9837    0.0000 C   0  0  0  0  0  0  0  0  0  0  0  0
   -2.9128   -1.3962    0.0000 C   0  0  0  0  0  0  0  0  0  0  0  0
   -2.1984   -0.9837    0.0000 C   0  0  0  0  0  0  0  0  0  0  0  0
   -4.3418    0.2538    0.0000 C   0  0  0  0  0  0  0  0  0  0  0  0
   -4.3418    1.0788    0.0000 C   0  0  0  0  0  0  0  0  0  0  0  0
   -3.6273    1.4913    0.0000 C   0  0  0  0  0  0  0  0  0  0  0  0
   -2.9128    1.0788    0.0000 C   0  0  0  0  0  0  0  0  0  0  0  0
   -1.4839    1.0788    0.0000 C   0  0  0  0  0  0  0  0  0  0  0  0
    8.1285    0.0000    0.0000 H   0  3  0  0  0  0  0  0  0  0  0  0
    7.3035    0.0000    0.0000 Cl  0  5  0  0  0  0  0  0  0  0  0  0
  1  2  1  0  0  0  0
  2  3  1  0  0  0  0
  3  4  1  0  0  0  0
  4  5  1  0  0  0  0
  5  6  1  0  0  0  0
  6  7  2  0  0  0  0
  7  8  1  0  0  0  0
  8  9  2  0  0  0  0
  9 10  1  0  0  0  0
 10 11  2  0  0  0  0
  6 11  1  0  0  0  0
  8 12  1  0  0  0  0
 12 13  1  0  0  0  0
 12 14  1  0  0  0  0
 12 15  1  0  0  0  0
  1 16  1  0  0  0  0
 16 17  2  0  0  0  0
 17 18  1  0  0  0  0
 18 19  2  0  0  0  0
 19 20  1  0  0  0  0
 20 21  2  0  0  0  0
 16 21  1  0  0  0  0
 18 22  1  0  0  0  0
 22 23  2  0  0  0  0
 23 24  1  0  0  0  0
 24 25  2  0  0  0  0
 17 25  1  0  0  0  0
  1 26  1  0  0  0  0
M  CHG  2  27   1  28  -1
M  END
>  <Name>
Cinacalcet HCl

>  <CAS>
364782-34-3

>  <Formula>
C22H23ClF3N

>  <MolWt>
393.87 

>  <Bioactivity>
Cinacalcet Hcl (AMG-073) is an orally active, second-generation calcimimetic compound; AMG 073 represents a new class of compounds for the treatment of hyperparathyroidism.

>  <Pathways>
GPCR/G Protein

>  <Target>
CaSR activator

>  <Receptor>
CaSR

>  <Reference>
1. Quarles LD, et al. J Am Soc Nephrol. 2003 Mar;14(3):575-83.

$$$$
59721-29-8
  Mrv1561503291623562D          

 34 34  0  0  0  0            999 V2000
   -6.0853    1.3228    0.0000 C   0  0  0  0  0  0  0  0  0  0  0  0
   -5.3709    0.9103    0.0000 N   0  0  0  0  0  0  0  0  0  0  0  0
   -5.3709    0.0853    0.0000 C   0  0  0  0  0  0  0  0  0  0  0  0
   -4.6564    1.3228    0.0000 C   0  0  0  0  0  0  0  0  0  0  0  0
   -4.6564    2.1478    0.0000 O   0  0  0  0  0  0  0  0  0  0  0  0
   -3.9419    0.9103    0.0000 C   0  0  0  0  0  0  0  0  0  0  0  0
   -3.2274    1.3228    0.0000 O   0  0  0  0  0  0  0  0  0  0  0  0
   -2.5130    0.9103    0.0000 C   0  0  0  0  0  0  0  0  0  0  0  0
   -2.5130    0.0853    0.0000 O   0  0  0  0  0  0  0  0  0  0  0  0
   -1.7985    1.3228    0.0000 C   0  0  0  0  0  0  0  0  0  0  0  0
   -1.0840    0.9103    0.0000 C   0  0  0  0  0  0  0  0  0  0  0  0
   -0.3696    1.3228    0.0000 C   0  0  0  0  0  0  0  0  0  0  0  0
    0.3449    0.9103    0.0000 C   0  0  0  0  0  0  0  0  0  0  0  0
    0.3449    0.0853    0.0000 C   0  0  0  0  0  0  0  0  0  0  0  0
   -0.3696   -0.3272    0.0000 C   0  0  0  0  0  0  0  0  0  0  0  0
   -1.0840    0.0853    0.0000 C   0  0  0  0  0  0  0  0  0  0  0  0
    1.0594   -0.3272    0.0000 O   0  0  0  0  0  0  0  0  0  0  0  0
    1.7739    0.0853    0.0000 C   0  0  0  0  0  0  0  0  0  0  0  0
    1.7739    0.9103    0.0000 O   0  0  0  0  0  0  0  0  0  0  0  0
    2.4883   -0.3272    0.0000 C   0  0  0  0  0  0  0  0  0  0  0  0
    3.2028    0.0853    0.0000 C   0  0  0  0  0  0  0  0  0  0  0  0
    3.9173   -0.3272    0.0000 C   0  0  0  0  0  0  0  0  0  0  0  0
    3.9173   -1.1522    0.0000 C   0  0  0  0  0  0  0  0  0  0  0  0
    3.2028   -1.5647    0.0000 C   0  0  0  0  0  0  0  0  0  0  0  0
    2.4883   -1.1522    0.0000 C   0  0  0  0  0  0  0  0  0  0  0  0
    4.6317   -1.5647    0.0000 N   0  0  0  0  0  0  0  0  0  0  0  0
    4.6317   -2.3897    0.0000 C   0  0  0  0  0  0  0  0  0  0  0  0
    5.3462   -2.8022    0.0000 N   0  0  0  0  0  0  0  0  0  0  0  0
    3.9173   -2.8022    0.0000 N   0  0  0  0  0  0  0  0  0  0  0  0
    8.0569   -0.8250    0.0000 C   0  0  0  0  0  0  0  0  0  0  0  0
    8.0569    0.0000    0.0000 S   0  0  0  0  0  0  0  0  0  0  0  0
    8.0569    0.8250    0.0000 O   0  0  0  0  0  0  0  0  0  0  0  0
    8.8819   -0.0000    0.0000 O   0  0  0  0  0  0  0  0  0  0  0  0
    7.2319    0.0000    0.0000 O   0  0  0  0  0  0  0  0  0  0  0  0
  1  2  1  0  0  0  0
  2  3  1  0  0  0  0
  2  4  1  0  0  0  0
  4  5  2  0  0  0  0
  4  6  1  0  0  0  0
  6  7  1  0  0  0  0
  7  8  1  0  0  0  0
  8  9  2  0  0  0  0
  8 10  1  0  0  0  0
 10 11  1  0  0  0  0
 11 12  2  0  0  0  0
 12 13  1  0  0  0  0
 13 14  2  0  0  0  0
 14 15  1  0  0  0  0
 15 16  2  0  0  0  0
 11 16  1  0  0  0  0
 14 17  1  0  0  0  0
 17 18  1  0  0  0  0
 18 19  2  0  0  0  0
 18 20  1  0  0  0  0
 20 21  2  0  0  0  0
 21 22  1  0  0  0  0
 22 23  2  0  0  0  0
 23 24  1  0  0  0  0
 24 25  2  0  0  0  0
 20 25  1  0  0  0  0
 23 26  1  0  0  0  0
 26 27  2  0  0  0  0
 27 28  1  0  0  0  0
 27 29  1  0  0  0  0
 30 31  1  0  0  0  0
 31 32  2  0  0  0  0
 31 33  2  0  0  0  0
 31 34  1  0  0  0  0
M  END
>  <Name>
Camostat mesilate

>  <CAS>
59721-29-8

>  <Formula>
C21H26N4O8S

>  <MolWt>
494.52 

>  <Bioactivity>
Camostat is a trypsin-like protease inhibitor, inhibits airway epithelial sodium channel (ENaC) function with IC50 of 50 nM, less potent to trpsin, prostasin and matriptase.

>  <Pathways>
Membrane Transporter/Ion Channel

>  <Target>
Sodium Channel inhibitor

>  <Receptor>
epithelial sodium channel (ENaC)

>  <Reference>
1. Coote K, et al. J Pharmacol Exp Ther, 2009, 329(2), 764-774.

$$$$
1218-35-5
  Mrv1561503291623562D          

 20 19  0  0  0  0            999 V2000
    0.4125    0.0000    0.0000 H   0  3  0  0  0  0  0  0  0  0  0  0
    4.1986    0.1262    0.0000 C   0  0  0  0  0  0  0  0  0  0  0  0
    4.1986    0.9512    0.0000 C   0  0  0  0  0  0  0  0  0  0  0  0
    3.4841    1.3637    0.0000 C   0  0  0  0  0  0  0  0  0  0  0  0
    2.7696    1.7762    0.0000 C   0  0  0  0  0  0  0  0  0  0  0  0
    3.0716    0.6492    0.0000 C   0  0  0  0  0  0  0  0  0  0  0  0
    3.8966    2.0782    0.0000 C   0  0  0  0  0  0  0  0  0  0  0  0
    4.9131    1.3637    0.0000 C   0  0  0  0  0  0  0  0  0  0  0  0
    5.6275    0.9512    0.0000 C   0  0  0  0  0  0  0  0  0  0  0  0
    5.6275    0.1262    0.0000 C   0  0  0  0  0  0  0  0  0  0  0  0
    4.9131   -0.2863    0.0000 C   0  0  0  0  0  0  0  0  0  0  0  0
    4.9131   -1.1113    0.0000 C   0  0  0  0  0  0  0  0  0  0  0  0
    6.3420   -0.2863    0.0000 C   0  0  0  0  0  0  0  0  0  0  0  0
    6.3420   -1.1113    0.0000 C   0  0  0  0  0  0  0  0  0  0  0  0
    7.0094   -1.5962    0.0000 N   0  0  0  0  0  0  0  0  0  0  0  0
    6.7545   -2.3809    0.0000 C   0  0  0  0  0  0  0  0  0  0  0  0
    5.9295   -2.3809    0.0000 C   0  0  0  0  0  0  0  0  0  0  0  0
    5.6746   -1.5962    0.0000 N   0  0  0  0  0  0  0  0  0  0  0  0
    6.3420    1.3637    0.0000 C   0  0  0  0  0  0  0  0  0  0  0  0
   -0.4125    0.0000    0.0000 Cl  0  5  0  0  0  0  0  0  0  0  0  0
  2  3  2  0  0  0  0
  3  4  1  0  0  0  0
  4  5  1  0  0  0  0
  4  6  1  0  0  0  0
  4  7  1  0  0  0  0
  3  8  1  0  0  0  0
  8  9  2  0  0  0  0
  9 10  1  0  0  0  0
 10 11  2  0  0  0  0
  2 11  1  0  0  0  0
 11 12  1  0  0  0  0
 10 13  1  0  0  0  0
 13 14  1  0  0  0  0
 14 15  2  0  0  0  0
 15 16  1  0  0  0  0
 16 17  1  0  0  0  0
 17 18  1  0  0  0  0
 14 18  1  0  0  0  0
  9 19  1  0  0  0  0
M  CHG  2   1   1  20  -1
M  END
>  <Name>
Xylometazoline HCl

>  <CAS>
1218-35-5

>  <Formula>
C16H24N2.HCl

>  <MolWt>
280.84 

>  <Bioactivity>
A nasal vasoconstricting decongestant drug which acts by binding to the same receptors as adrenaline. It is applied as a spray or as drops into the nose to ease inflammation and congestion of the nasal passageways. It binds alpha-adrenergic receptors to activate the adrenal system which causes systemic vasoconstriction, thereby easing nasal congestion. 

>  <Pathways>
GPCR/G Protein

>  <Target>
Adrenergic Receptor agonist

>  <Receptor>
Adrenergic Receptor

>  <Reference>
1. Haenisch B, Fundam Clin Pharmacol, 2010, 24(6), 729-739.

$$$$
52549-17-4
  Mrv1561503291623562D          

 19 21  0  0  0  0            999 V2000
    3.5724    1.2375    0.0000 C   0  0  0  0  0  0  0  0  0  0  0  0
    4.2868    0.8250    0.0000 C   0  0  0  0  0  0  0  0  0  0  0  0
    5.0013    1.2375    0.0000 C   0  0  0  0  0  0  0  0  0  0  0  0
    5.7158    0.8250    0.0000 C   0  0  0  0  0  0  0  0  0  0  0  0
    6.4302    1.2375    0.0000 O   0  0  0  0  0  0  0  0  0  0  0  0
    5.7158   -0.0000    0.0000 O   0  0  0  0  0  0  0  0  0  0  0  0
    5.0013    2.0625    0.0000 C   0  0  0  0  0  0  0  0  0  0  0  0
    4.2868   -0.0000    0.0000 C   0  0  0  0  0  0  0  0  0  0  0  0
    3.5724   -0.4125    0.0000 C   0  0  0  0  0  0  0  0  0  0  0  0
    2.8579   -0.0000    0.0000 C   0  0  0  0  0  0  0  0  0  0  0  0
    2.8579    0.8250    0.0000 C   0  0  0  0  0  0  0  0  0  0  0  0
    2.1434    1.2375    0.0000 C   0  0  0  0  0  0  0  0  0  0  0  0
    1.4289    0.8250    0.0000 C   0  0  0  0  0  0  0  0  0  0  0  0
    1.4289   -0.0000    0.0000 C   0  0  0  0  0  0  0  0  0  0  0  0
    2.1434   -0.4125    0.0000 O   0  0  0  0  0  0  0  0  0  0  0  0
    0.7145   -0.4125    0.0000 N   0  0  0  0  0  0  0  0  0  0  0  0
   -0.0000    0.0000    0.0000 C   0  0  0  0  0  0  0  0  0  0  0  0
    0.0000    0.8250    0.0000 C   0  0  0  0  0  0  0  0  0  0  0  0
    0.7145    1.2375    0.0000 C   0  0  0  0  0  0  0  0  0  0  0  0
  1  2  2  0  0  0  0
  2  3  1  0  0  0  0
  3  4  1  0  0  0  0
  4  5  1  0  0  0  0
  4  6  2  0  0  0  0
  3  7  1  0  0  0  0
  2  8  1  0  0  0  0
  8  9  2  0  0  0  0
  9 10  1  0  0  0  0
 10 11  2  0  0  0  0
  1 11  1  0  0  0  0
 11 12  1  0  0  0  0
 12 13  1  0  0  0  0
 13 14  2  0  0  0  0
 14 15  1  0  0  0  0
 10 15  1  0  0  0  0
 14 16  1  0  0  0  0
 16 17  2  0  0  0  0
 17 18  1  0  0  0  0
 18 19  2  0  0  0  0
 13 19  1  0  0  0  0
M  END
>  <Name>
Pranoprofen

>  <CAS>
52549-17-4

>  <Formula>
C15H13NO3

>  <MolWt>
255.28 

>  <Bioactivity>
Pranoprofen is a PGE2 inhibitor with IC50 of 7.5 ?M.

>  <Pathways>
Immunology/Inflammation

>  <Target>
PGE2 inhibitor

>  <Receptor>
PGE2

>  <Reference>
1. Hayasaka Y, et al. Arch Ophthalmol. 2002 Jul;120(7):950-3.

$$$$
14176-50-2
  Mrv1561503291623562D          

 17 16  0  0  0  0            999 V2000
    0.4125    0.0000    0.0000 H   0  3  0  0  0  0  0  0  0  0  0  0
    4.7798   -0.8510    0.0000 C   0  0  0  0  0  0  0  0  0  0  0  0
    4.1124   -0.3661    0.0000 C   0  0  0  0  0  0  0  0  0  0  0  0
    3.4450   -0.8510    0.0000 S   0  0  0  0  0  0  0  0  0  0  0  0
    3.6999   -1.6356    0.0000 C   0  0  0  0  0  0  0  0  0  0  0  0
    4.5249   -1.6356    0.0000 C   0  0  0  0  0  0  0  0  0  0  0  0
    4.1124    0.4589    0.0000 C   0  0  0  0  0  0  0  0  0  0  0  0
    4.9249    0.3157    0.0000 N   0  0  0  0  0  0  0  0  0  0  0  0
    5.2070   -0.4596    0.0000 C   0  0  0  0  0  0  0  0  0  0  0  0
    6.0195   -0.6028    0.0000 C   0  0  0  0  0  0  0  0  0  0  0  0
    3.2999    0.3157    0.0000 C   0  0  0  0  0  0  0  0  0  0  0  0
    3.0178   -0.4596    0.0000 O   0  0  0  0  0  0  0  0  0  0  0  0
    2.7696    0.9477    0.0000 C   0  0  0  0  0  0  0  0  0  0  0  0
    3.0518    1.7229    0.0000 C   0  0  0  0  0  0  0  0  0  0  0  0
    3.8643    1.8662    0.0000 C   0  0  0  0  0  0  0  0  0  0  0  0
    4.3946    1.2342    0.0000 C   0  0  0  0  0  0  0  0  0  0  0  0
   -0.4125    0.0000    0.0000 Cl  0  5  0  0  0  0  0  0  0  0  0  0
  2  3  2  0  0  0  0
  3  4  1  0  0  0  0
  4  5  1  0  0  0  0
  5  6  2  0  0  0  0
  2  6  1  0  0  0  0
  3  7  1  0  0  0  0
  7  8  1  0  0  0  0
  8  9  1  0  0  0  0
  9 10  1  0  0  0  0
  7 11  1  0  0  0  0
 11 12  2  0  0  0  0
 11 13  1  0  0  0  0
 13 14  1  0  0  0  0
 14 15  1  0  0  0  0
 15 16  1  0  0  0  0
  7 16  1  0  0  0  0
M  CHG  2   1   1  17  -1
M  END
>  <Name>
Tiletamine HCl

>  <CAS>
14176-50-2

>  <Formula>
C12H17NOS.ClH

>  <MolWt>
259.80 

>  <Bioactivity>
Proposed anesthetic with possible anticonvulsant and sedative properties.

>  <Pathways>
Neuroscience

>  <Target>
GluR antagonist

>  <Receptor>
NMDA receptor

>  <Reference>
1. Klockgether T, et al. Brain Res. 1988 Oct 4;461(2):343-8.

$$$$
5579-84-0
  Mrv1561503291623562D          

 14 10  0  0  0  0            999 V2000
    0.4125    0.0000    0.0000 H   0  3  0  0  0  0  0  0  0  0  0  0
    3.5946    0.0000    0.0000 H   0  3  0  0  0  0  0  0  0  0  0  0
   -0.4125    0.0000    0.0000 Cl  0  5  0  0  0  0  0  0  0  0  0  0
   -0.4287   -4.5375    0.0000 C   0  0  0  0  0  0  0  0  0  0  0  0
    0.2858   -4.1250    0.0000 C   0  0  0  0  0  0  0  0  0  0  0  0
    1.0003   -4.5375    0.0000 N   0  0  0  0  0  0  0  0  0  0  0  0
    1.0003   -5.3625    0.0000 C   0  0  0  0  0  0  0  0  0  0  0  0
    0.2858   -5.7750    0.0000 C   0  0  0  0  0  0  0  0  0  0  0  0
   -0.4287   -5.3625    0.0000 C   0  0  0  0  0  0  0  0  0  0  0  0
    0.2858   -3.3000    0.0000 C   0  0  0  0  0  0  0  0  0  0  0  0
   -0.4287   -2.8875    0.0000 C   0  0  0  0  0  0  0  0  0  0  0  0
   -0.4287   -2.0625    0.0000 N   0  0  0  0  0  0  0  0  0  0  0  0
   -1.1432   -1.6500    0.0000 C   0  0  0  0  0  0  0  0  0  0  0  0
    2.7696    0.0000    0.0000 Cl  0  5  0  0  0  0  0  0  0  0  0  0
  4  5  2  0  0  0  0
  5  6  1  0  0  0  0
  6  7  2  0  0  0  0
  7  8  1  0  0  0  0
  8  9  2  0  0  0  0
  4  9  1  0  0  0  0
  5 10  1  0  0  0  0
 10 11  1  0  0  0  0
 11 12  1  0  0  0  0
 12 13  1  0  0  0  0
M  CHG  4   1   1   2   1   3  -1  14  -1
M  END
>  <Name>
Betahistine 2HCl

>  <CAS>
5579-84-0

>  <Formula>
C8H14Cl2N2

>  <MolWt>
209.12 

>  <Bioactivity>
Betahistine is an antivertigo drug first used for treating vertigo assosicated with Ménière’s disease. It is also commonly used for patients with balance disorders.

>  <Pathways>
Neuroscience

>  <Target>
Histamine Receptor antagonist

>  <Receptor>
Histamine H1, H3 receptor

>  <Reference>
1. Gbahou F, et al. J Pharmacol Exp Ther, 2010, 334(3), 945-954.

$$$$
127-48-0
  Mrv1561503291623562D          

 10 10  0  0  0  0            999 V2000
    0.0157    1.7274    0.0000 C   0  0  0  0  0  0  0  0  0  0  0  0
    0.5678    1.1143    0.0000 C   0  0  0  0  0  0  0  0  0  0  0  0
    1.2352    0.6294    0.0000 C   0  0  0  0  0  0  0  0  0  0  0  0
    0.9803   -0.1553    0.0000 N   0  0  0  0  0  0  0  0  0  0  0  0
    0.1553   -0.1553    0.0000 C   0  0  0  0  0  0  0  0  0  0  0  0
   -0.0997    0.6294    0.0000 O   0  0  0  0  0  0  0  0  0  0  0  0
   -0.3297   -0.8227    0.0000 O   0  0  0  0  0  0  0  0  0  0  0  0
    1.4652   -0.8227    0.0000 C   0  0  0  0  0  0  0  0  0  0  0  0
    2.0198    0.8843    0.0000 O   0  0  0  0  0  0  0  0  0  0  0  0
    1.1198    1.7274    0.0000 C   0  0  0  0  0  0  0  0  0  0  0  0
  1  2  1  0  0  0  0
  2  3  1  0  0  0  0
  3  4  1  0  0  0  0
  4  5  1  0  0  0  0
  5  6  1  0  0  0  0
  2  6  1  0  0  0  0
  5  7  2  0  0  0  0
  4  8  1  0  0  0  0
  3  9  2  0  0  0  0
  2 10  1  0  0  0  0
M  END
>  <Name>
Trimethadione

>  <CAS>
127-48-0

>  <Formula>
C6H9NO3

>  <MolWt>
143.14 

>  <Bioactivity>
An anticonvulsant effective in absence seizures, but generally reserved for refractory cases because of its toxicity. (From AMA Drug Evaluations Annual, 1994, p378)  

>  <Pathways>
Membrane Transporter/Ion Channel

>  <Target>
Calcium Channel inhibitor

>  <Receptor>
Calcium Channel

>  <Reference>
1. Shen H, et al. Hear Res. 2007 Apr;226(1-2):52-60. 

$$$$
56-04-2
  Mrv1561503291623562D          

  9  9  0  0  0  0            999 V2000
    0.7145    2.0625    0.0000 C   0  0  0  0  0  0  0  0  0  0  0  0
    0.7145    1.2375    0.0000 C   0  0  0  0  0  0  0  0  0  0  0  0
    1.4289    0.8250    0.0000 C   0  0  0  0  0  0  0  0  0  0  0  0
    1.4289    0.0000    0.0000 C   0  0  0  0  0  0  0  0  0  0  0  0
    0.7145   -0.4125    0.0000 N   0  0  0  0  0  0  0  0  0  0  0  0
    0.0000   -0.0000    0.0000 C   0  0  0  0  0  0  0  0  0  0  0  0
    0.0000    0.8250    0.0000 N   0  0  0  0  0  0  0  0  0  0  0  0
   -0.7145   -0.4125    0.0000 S   0  0  0  0  0  0  0  0  0  0  0  0
    2.1434   -0.4125    0.0000 O   0  0  0  0  0  0  0  0  0  0  0  0
  1  2  1  0  0  0  0
  2  3  2  0  0  0  0
  3  4  1  0  0  0  0
  4  5  1  0  0  0  0
  5  6  1  0  0  0  0
  6  7  1  0  0  0  0
  2  7  1  0  0  0  0
  6  8  2  0  0  0  0
  4  9  2  0  0  0  0
M  END
>  <Name>
Methylthiouracil

>  <CAS>
56-04-2

>  <Formula>
C5H6N2OS

>  <MolWt>
142.18 

>  <Bioactivity>
A thiourea antithyroid agent that inhibits the synthesis of thyroid hormone. It is used in the treatment of hyperthyroidism.

>  <Pathways>
Endocrinology/ Hormones

>  <Target>
Antithyroid preparation

>  <Receptor>
antithyroid

>  <Reference>
1. Crooks J, et al. Br Med J, 1960, 1(5167), 151-154.

$$$$
T0309
  Mrv1561503291623562D          

 21 23  0  0  0  0            999 V2000
   -0.0000    0.0000    0.0000 C   0  0  0  0  0  0  0  0  0  0  0  0
   -0.7145   -0.4125    0.0000 C   0  0  0  0  0  0  0  0  0  0  0  0
   -1.4289    0.0000    0.0000 O   0  0  0  0  0  0  0  0  0  0  0  0
   -2.1434   -0.4125    0.0000 C   0  0  0  0  0  0  0  0  0  0  0  0
   -2.8579   -0.0000    0.0000 C   0  0  0  0  0  0  0  0  0  0  0  0
   -2.1434   -1.2375    0.0000 C   0  0  0  0  0  0  0  0  0  0  0  0
   -0.7145   -1.2375    0.0000 C   0  0  0  0  0  0  0  0  0  0  0  0
   -0.0000   -1.6500    0.0000 C   0  0  0  0  0  0  0  0  0  0  0  0
    0.7145   -1.2375    0.0000 C   0  0  0  0  0  0  0  0  0  0  0  0
    0.7145   -0.4125    0.0000 C   0  0  0  0  0  0  0  0  0  0  0  0
    1.4289    0.0000    0.0000 O   0  0  0  0  0  0  0  0  0  0  0  0
    2.1434   -0.4125    0.0000 C   0  0  0  0  0  0  0  0  0  0  0  0
    2.1434   -1.2375    0.0000 C   0  0  0  0  0  0  0  0  0  0  0  0
    1.4289   -1.6500    0.0000 C   0  0  0  0  0  0  0  0  0  0  0  0
    1.4289   -2.4750    0.0000 O   0  0  0  0  0  0  0  0  0  0  0  0
    2.8579   -1.6500    0.0000 C   0  0  0  0  0  0  0  0  0  0  0  0
    3.5724   -1.2375    0.0000 C   0  0  0  0  0  0  0  0  0  0  0  0
    4.2868   -1.6500    0.0000 C   0  0  0  0  0  0  0  0  0  0  0  0
    4.2868   -2.4750    0.0000 C   0  0  0  0  0  0  0  0  0  0  0  0
    3.5724   -2.8875    0.0000 C   0  0  0  0  0  0  0  0  0  0  0  0
    2.8579   -2.4750    0.0000 C   0  0  0  0  0  0  0  0  0  0  0  0
  1  2  2  0  0  0  0
  2  3  1  0  0  0  0
  3  4  1  0  0  0  0
  4  5  1  0  0  0  0
  4  6  1  0  0  0  0
  2  7  1  0  0  0  0
  7  8  2  0  0  0  0
  8  9  1  0  0  0  0
  9 10  2  0  0  0  0
  1 10  1  0  0  0  0
 10 11  1  0  0  0  0
 11 12  1  0  0  0  0
 12 13  2  0  0  0  0
 13 14  1  0  0  0  0
  9 14  1  0  0  0  0
 14 15  2  0  0  0  0
 13 16  1  0  0  0  0
 16 17  2  0  0  0  0
 17 18  1  0  0  0  0
 18 19  2  0  0  0  0
 19 20  1  0  0  0  0
 20 21  2  0  0  0  0
 16 21  1  0  0  0  0
M  END
>  <Name>
Ipriflavone (Osteofix)

>  <CAS>
35212-22-7

>  <Formula>
C18H16O3

>  <MolWt>
280.32 

>  <Bioactivity>
Ipriflavone (7-Isopropoxyisoflavon) is used to inhibit bone resorption.

>  <Pathways>
Immunology/Inflammation

>  <Target>
Immunologic Factors

>  <Receptor>
AGE

>  <Reference>
1. Cheng SL, et al. Calcif Tissue Int, 1994, 55(5), 356-362.

$$$$
31842-01-0
  Mrv1561503291623562D          

 21 23  0  0  0  0            999 V2000
   -1.8659   -1.4124    0.0000 C   0  0  0  0  0  0  0  0  0  0  0  0
   -2.6909   -1.4124    0.0000 C   0  0  0  0  0  0  0  0  0  0  0  0
   -3.1034   -0.6979    0.0000 C   0  0  0  0  0  0  0  0  0  0  0  0
   -2.6909    0.0165    0.0000 C   0  0  0  0  0  0  0  0  0  0  0  0
   -1.8659    0.0165    0.0000 C   0  0  0  0  0  0  0  0  0  0  0  0
   -1.4534   -0.6979    0.0000 C   0  0  0  0  0  0  0  0  0  0  0  0
   -0.6284   -0.6979    0.0000 N   0  0  0  0  0  0  0  0  0  0  0  0
   -0.1435   -1.3654    0.0000 C   0  0  0  0  0  0  0  0  0  0  0  0
    0.6411   -1.1104    0.0000 C   0  0  0  0  0  0  0  0  0  0  0  0
    0.6411   -0.2854    0.0000 C   0  0  0  0  0  0  0  0  0  0  0  0
   -0.1435   -0.0305    0.0000 C   0  0  0  0  0  0  0  0  0  0  0  0
    1.3556    0.1271    0.0000 C   0  0  0  0  0  0  0  0  0  0  0  0
    2.0701   -0.2854    0.0000 C   0  0  0  0  0  0  0  0  0  0  0  0
    2.0701   -1.1104    0.0000 C   0  0  0  0  0  0  0  0  0  0  0  0
    1.3556   -1.5229    0.0000 C   0  0  0  0  0  0  0  0  0  0  0  0
   -0.3984   -2.1500    0.0000 O   0  0  0  0  0  0  0  0  0  0  0  0
   -3.9284   -0.6979    0.0000 C   0  0  0  0  0  0  0  0  0  0  0  0
   -4.3409    0.0165    0.0000 C   0  0  0  0  0  0  0  0  0  0  0  0
   -5.1659    0.0165    0.0000 O   0  0  0  0  0  0  0  0  0  0  0  0
   -3.9284    0.7310    0.0000 O   0  0  0  0  0  0  0  0  0  0  0  0
   -4.3409   -1.4124    0.0000 C   0  0  0  0  0  0  0  0  0  0  0  0
  1  2  2  0  0  0  0
  2  3  1  0  0  0  0
  3  4  2  0  0  0  0
  4  5  1  0  0  0  0
  5  6  2  0  0  0  0
  1  6  1  0  0  0  0
  6  7  1  0  0  0  0
  7  8  1  0  0  0  0
  8  9  1  0  0  0  0
  9 10  2  0  0  0  0
 10 11  1  0  0  0  0
  7 11  1  0  0  0  0
 10 12  1  0  0  0  0
 12 13  2  0  0  0  0
 13 14  1  0  0  0  0
 14 15  2  0  0  0  0
  9 15  1  0  0  0  0
  8 16  2  0  0  0  0
  3 17  1  0  0  0  0
 17 18  1  0  0  0  0
 18 19  1  0  0  0  0
 18 20  2  0  0  0  0
 17 21  1  0  0  0  0
M  END
>  <Name>
Indoprofen

>  <CAS>
31842-01-0

>  <Formula>
C17H15NO3

>  <MolWt>
281.31 

>  <Bioactivity>
Indoprofen is a non-steroidal anti-inflammatory drug. It was withdrawn worldwide in the 1980s after postmarketing reports of severe gastrointestinal bleeding. A 2004 study using high-throughput screening found indoprofen to increase production of the survival of motor neuron protein, suggesting it may provide insight into treatments for spinal muscular atrophies. 

>  <Pathways>
Neuroscience

>  <Target>
COX inhibitor

>  <Receptor>
Prostaglandin G/H synthase

>  <Reference>
1. Lunn MR, et al. Chem Biol. 2004 Nov;11(11):1489-93.

$$$$
120511-73-1
  Mrv1561503291623562D          

 22 23  0  0  0  0            999 V2000
   -0.1067    5.5902    0.0000 C   0  0  0  0  0  0  0  0  0  0  0  0
    0.6078    6.0027    0.0000 C   0  0  0  0  0  0  0  0  0  0  0  0
    1.3222    5.5902    0.0000 C   0  0  0  0  0  0  0  0  0  0  0  0
    1.3222    4.7652    0.0000 C   0  0  0  0  0  0  0  0  0  0  0  0
    0.6078    4.3527    0.0000 C   0  0  0  0  0  0  0  0  0  0  0  0
   -0.1067    4.7652    0.0000 C   0  0  0  0  0  0  0  0  0  0  0  0
   -0.8212    4.3527    0.0000 C   0  0  0  0  0  0  0  0  0  0  0  0
   -1.5356    3.9402    0.0000 C   0  0  0  0  0  0  0  0  0  0  0  0
   -2.2501    3.5277    0.0000 N   0  0  0  0  0  0  0  0  0  0  0  0
   -0.4087    3.6382    0.0000 C   0  0  0  0  0  0  0  0  0  0  0  0
   -1.2337    5.0672    0.0000 C   0  0  0  0  0  0  0  0  0  0  0  0
    2.0367    4.3527    0.0000 C   0  0  0  0  0  0  0  0  0  0  0  0
    2.0367    3.5277    0.0000 N   0  0  0  0  0  0  0  0  0  0  0  0
    2.7041    3.0428    0.0000 C   0  0  0  0  0  0  0  0  0  0  0  0
    2.4492    2.2581    0.0000 N   0  0  0  0  0  0  0  0  0  0  0  0
    1.6242    2.2581    0.0000 C   0  0  0  0  0  0  0  0  0  0  0  0
    1.3693    3.0428    0.0000 N   0  0  0  0  0  0  0  0  0  0  0  0
    0.6078    6.8277    0.0000 C   0  0  0  0  0  0  0  0  0  0  0  0
    0.6078    7.6527    0.0000 C   0  0  0  0  0  0  0  0  0  0  0  0
    0.6078    8.4777    0.0000 N   0  0  0  0  0  0  0  0  0  0  0  0
    1.4328    6.8277    0.0000 C   0  0  0  0  0  0  0  0  0  0  0  0
   -0.2172    6.8277    0.0000 C   0  0  0  0  0  0  0  0  0  0  0  0
  1  2  2  0  0  0  0
  2  3  1  0  0  0  0
  3  4  2  0  0  0  0
  4  5  1  0  0  0  0
  5  6  2  0  0  0  0
  1  6  1  0  0  0  0
  6  7  1  0  0  0  0
  7  8  1  0  0  0  0
  8  9  3  0  0  0  0
  7 10  1  0  0  0  0
  7 11  1  0  0  0  0
  4 12  1  0  0  0  0
 12 13  1  0  0  0  0
 13 14  1  0  0  0  0
 14 15  2  0  0  0  0
 15 16  1  0  0  0  0
 16 17  2  0  0  0  0
 13 17  1  0  0  0  0
  2 18  1  0  0  0  0
 18 19  1  0  0  0  0
 19 20  3  0  0  0  0
 18 21  1  0  0  0  0
 18 22  1  0  0  0  0
M  END
>  <Name>
Anastrozole

>  <CAS>
120511-73-1

>  <Formula>
C17H19N5

>  <MolWt>
293.37 

>  <Bioactivity>
Anastrozole is a drug indicated in the treatment of breast cancer in post-menopausal women. It is used both in adjuvant therapy (i.e. following surgery) and in metastatic breast cancer. It decreases the amount of estrogens that the body makes. Anastrozole belongs in the class of drugs known as aromatase inhibitors. It inhibits the enzyme aromatase, which is responsible for converting androgens (produced by women in the adrenal glands) to estrogens. 

>  <Pathways>
Enzyme

>  <Target>
Aromatase inhibitor

>  <Receptor>
Aromatase

>  <Reference>
1. Dukes M, et al. J Steroid Biochem Mol Biol, 1996, 58(4), 439-445.

$$$$
111406-87-2
  Mrv1561503291623562D          

 16 17  0  0  0  0            999 V2000
    1.1387   -1.3654    0.0000 C   0  0  0  0  0  0  0  0  0  0  0  0
    0.6538   -0.6979    0.0000 C   0  0  0  0  0  0  0  0  0  0  0  0
   -0.1712   -0.6979    0.0000 C   0  0  0  0  0  0  0  0  0  0  0  0
   -0.5837   -1.4124    0.0000 N   0  0  0  0  0  0  0  0  0  0  0  0
   -1.4087   -1.4124    0.0000 C   0  0  0  0  0  0  0  0  0  0  0  0
   -1.8212   -2.1269    0.0000 N   0  0  0  0  0  0  0  0  0  0  0  0
   -1.8212   -0.6979    0.0000 O   0  0  0  0  0  0  0  0  0  0  0  0
   -0.1712   -2.1269    0.0000 O   0  0  0  0  0  0  0  0  0  0  0  0
   -0.5837    0.0165    0.0000 C   0  0  0  0  0  0  0  0  0  0  0  0
    1.1387   -0.0305    0.0000 S   0  0  0  0  0  0  0  0  0  0  0  0
    1.9233   -0.2854    0.0000 C   0  0  0  0  0  0  0  0  0  0  0  0
    2.6378    0.1271    0.0000 C   0  0  0  0  0  0  0  0  0  0  0  0
    3.3523   -0.2854    0.0000 C   0  0  0  0  0  0  0  0  0  0  0  0
    3.3523   -1.1104    0.0000 C   0  0  0  0  0  0  0  0  0  0  0  0
    2.6378   -1.5229    0.0000 C   0  0  0  0  0  0  0  0  0  0  0  0
    1.9233   -1.1104    0.0000 C   0  0  0  0  0  0  0  0  0  0  0  0
  1  2  2  0  0  0  0
  2  3  1  0  0  0  0
  3  4  1  0  0  0  0
  4  5  1  0  0  0  0
  5  6  1  0  0  0  0
  5  7  2  0  0  0  0
  4  8  1  0  0  0  0
  3  9  1  0  0  0  0
  2 10  1  0  0  0  0
 10 11  1  0  0  0  0
 11 12  2  0  0  0  0
 12 13  1  0  0  0  0
 13 14  2  0  0  0  0
 14 15  1  0  0  0  0
 15 16  2  0  0  0  0
  1 16  1  0  0  0  0
 11 16  1  0  0  0  0
M  END
>  <Name>
Zileuton

>  <CAS>
111406-87-2

>  <Formula>
C11H12N2O2S

>  <MolWt>
236.29 

>  <Bioactivity>
Leukotrienes are substances that induce numerous biological effects including augmentation of neutrophil and eosinophil migration, neutrophil and monocyte aggregation, leukocyte adhesion, increased capillary permeability, and smooth muscle contraction. These effects contribute to inflammation, edema, mucus secretion, and bronchoconstriction in the airways of asthmatic patients. Zileuton relieves such symptoms through its selective inhibition of 5-lipoxygenase, the enzyme that catalyzes the formation of leukotrienes from arachidonic acid. Specifically, it inhibits leukotriene LTB4, LTC4, LTD4, and LTE4 formation. Both the R(+) and S(-) enantiomers are pharmacologically active as 5-lipoxygenase inhibitors in in vitro systems. The immediate release tablet of Zileuton has been withdrawn from the US market. 

>  <Pathways>
Metabolism; Neuroscience

>  <Target>
5-Lipoxygenase inhibitor; COX inhibitor

>  <Receptor>
5-Lipoxygenase;Prostaglandin G/H synthase 1

>  <Reference>
1. Rossi A1, et al. Br J Pharmacol, 2010, 161(3), 555-570.

$$$$
13311-84-7
  Mrv1561503291623562D          

 19 19  0  0  0  0            999 V2000
    1.4289    0.8250    0.0000 C   0  0  0  0  0  0  0  0  0  0  0  0
    1.4289    0.0000    0.0000 C   0  0  0  0  0  0  0  0  0  0  0  0
    2.1434   -0.4125    0.0000 N   0  0  0  0  0  0  0  0  0  0  0  0
    2.8579    0.0000    0.0000 C   0  0  0  0  0  0  0  0  0  0  0  0
    3.5724   -0.4125    0.0000 C   0  0  0  0  0  0  0  0  0  0  0  0
    4.2868    0.0000    0.0000 C   0  0  0  0  0  0  0  0  0  0  0  0
    3.5724   -1.2375    0.0000 C   0  0  0  0  0  0  0  0  0  0  0  0
    2.8579    0.8250    0.0000 O   0  0  0  0  0  0  0  0  0  0  0  0
    0.7145   -0.4125    0.0000 C   0  0  0  0  0  0  0  0  0  0  0  0
   -0.0000    0.0000    0.0000 C   0  0  0  0  0  0  0  0  0  0  0  0
   -0.0000    0.8250    0.0000 C   0  0  0  0  0  0  0  0  0  0  0  0
    0.7145    1.2375    0.0000 C   0  0  0  0  0  0  0  0  0  0  0  0
    0.7145    2.0625    0.0000 C   0  0  0  0  0  0  0  0  0  0  0  0
    0.7145    2.8875    0.0000 F   0  0  0  0  0  0  0  0  0  0  0  0
    1.5395    2.0625    0.0000 F   0  0  0  0  0  0  0  0  0  0  0  0
   -0.1105    2.0625    0.0000 F   0  0  0  0  0  0  0  0  0  0  0  0
   -0.7145    1.2375    0.0000 N   0  3  0  0  0  0  0  0  0  0  0  0
   -1.4289    0.8250    0.0000 O   0  0  0  0  0  0  0  0  0  0  0  0
   -0.7145    2.0625    0.0000 O   0  5  0  0  0  0  0  0  0  0  0  0
  1  2  2  0  0  0  0
  2  3  1  0  0  0  0
  3  4  1  0  0  0  0
  4  5  1  0  0  0  0
  5  6  1  0  0  0  0
  5  7  1  0  0  0  0
  4  8  2  0  0  0  0
  2  9  1  0  0  0  0
  9 10  2  0  0  0  0
 10 11  1  0  0  0  0
 11 12  2  0  0  0  0
  1 12  1  0  0  0  0
 12 13  1  0  0  0  0
 13 14  1  0  0  0  0
 13 15  1  0  0  0  0
 13 16  1  0  0  0  0
 11 17  1  0  0  0  0
 17 18  2  0  0  0  0
 17 19  1  0  0  0  0
M  CHG  2  17   1  19  -1
M  END
>  <Name>
Flutamide

>  <CAS>
13311-84-7

>  <Formula>
C11H11F3N2O3

>  <MolWt>
276.21 

>  <Bioactivity>
Flutamide is an antiandrogen drug, with its active metablolite binding at androgen receptor.

>  <Pathways>
Endocrinology/ Hormones

>  <Target>
Androgen Receptor antagonist

>  <Receptor>
Androgen Receptor

>  <Reference>
1. Chang HC, et al. Proc Natl Acad Sci U S A. 1999 Sep 28;96(20):11173-7. 

$$$$
59-52-9
  Mrv1561503291623562D          

  6  5  0  0  0  0            999 V2000
    0.8250    0.0000    0.0000 C   0  0  0  0  0  0  0  0  0  0  0  0
    1.2375   -0.7145    0.0000 C   0  0  0  0  0  0  0  0  0  0  0  0
    2.0625   -0.7145    0.0000 C   0  0  0  0  0  0  0  0  0  0  0  0
    2.4750   -1.4289    0.0000 S   0  0  0  0  0  0  0  0  0  0  0  0
    0.8250   -1.4289    0.0000 S   0  0  0  0  0  0  0  0  0  0  0  0
    0.0000    0.0000    0.0000 O   0  0  0  0  0  0  0  0  0  0  0  0
  1  2  1  0  0  0  0
  2  3  1  0  0  0  0
  3  4  1  0  0  0  0
  2  5  1  0  0  0  0
  1  6  1  0  0  0  0
M  END
>  <Name>
Dithiopropanol

>  <CAS>
59-52-9

>  <Formula>
C3H8OS2

>  <MolWt>
124.22 

>  <Bioactivity>
An anti-gas warfare agent that is effective against Lewisite (dichloro(2-chlorovinyl)arsine) and formerly known as British Anti-Lewisite or BAL. It acts as a chelating agent and is used in the treatment of arsenic, gold, and other heavy metal poisoning.  

>  <Pathways>
Others

>  <Target>
Chelator

>  <Receptor>
Arsenic, Cadmium, Mercury

>  <Reference>
1. Flora SJ, et al. Int J Environ Res Public Health. 2010, 7(7):2745-88.

$$$$
305-33-9
  Mrv1561503291623562D          

 18 17  0  0  0  0            999 V2000
   -0.7694    0.7615    0.0000 C   0  0  0  0  0  0  0  0  0  0  0  0
   -0.7694   -0.0635    0.0000 C   0  0  0  0  0  0  0  0  0  0  0  0
   -0.0550   -0.4760    0.0000 C   0  0  0  0  0  0  0  0  0  0  0  0
    0.6595   -0.0635    0.0000 N   0  0  0  0  0  0  0  0  0  0  0  0
    1.3740   -0.4760    0.0000 N   0  0  0  0  0  0  0  0  0  0  0  0
    2.0885   -0.0635    0.0000 C   0  0  0  0  0  0  0  0  0  0  0  0
    2.8029   -0.4760    0.0000 C   0  0  0  0  0  0  0  0  0  0  0  0
    2.0885    0.7615    0.0000 C   0  0  0  0  0  0  0  0  0  0  0  0
   -0.0550   -1.3010    0.0000 O   0  0  0  0  0  0  0  0  0  0  0  0
   -1.4839   -0.4760    0.0000 C   0  0  0  0  0  0  0  0  0  0  0  0
   -2.1984   -0.0635    0.0000 C   0  0  0  0  0  0  0  0  0  0  0  0
   -2.1984    0.7615    0.0000 N   0  0  0  0  0  0  0  0  0  0  0  0
   -1.4839    1.1740    0.0000 C   0  0  0  0  0  0  0  0  0  0  0  0
    5.5136   -0.8250    0.0000 O   0  0  0  0  0  0  0  0  0  0  0  0
    5.5136    0.0000    0.0000 P   0  0  0  0  0  0  0  0  0  0  0  0
    5.5136    0.8250    0.0000 O   0  0  0  0  0  0  0  0  0  0  0  0
    6.3386   -0.0000    0.0000 O   0  0  0  0  0  0  0  0  0  0  0  0
    4.6886    0.0000    0.0000 O   0  0  0  0  0  0  0  0  0  0  0  0
  1  2  2  0  0  0  0
  2  3  1  0  0  0  0
  3  4  1  0  0  0  0
  4  5  1  0  0  0  0
  5  6  1  0  0  0  0
  6  7  1  0  0  0  0
  6  8  1  0  0  0  0
  3  9  2  0  0  0  0
  2 10  1  0  0  0  0
 10 11  2  0  0  0  0
 11 12  1  0  0  0  0
 12 13  2  0  0  0  0
  1 13  1  0  0  0  0
 14 15  2  0  0  0  0
 15 16  1  0  0  0  0
 15 17  1  0  0  0  0
 15 18  1  0  0  0  0
M  END
>  <Name>
Iproniazid Phosphate

>  <CAS>
305-33-9

>  <Formula>
C9H13N3O.H3PO4

>  <MolWt>
277.21 

>  <Bioactivity>
Iproniazid is a non-selective, irreversible monoamine oxidase inhibitor (MAOI) of the hydrazine class. It was discontinued in most of the world in the 1960s, but remained in use in France up until fairly recently.[

>  <Pathways>
Metabolism

>  <Target>
MAO inhibitor

>  <Receptor>
MAO

>  <Reference>
1. Fagervall I, et al. Biochemical pharmacology, 1986, 35 (8): 1381–7. 

$$$$
36330-85-5
  Mrv1561503291623562D          

 19 20  0  0  0  0            999 V2000
   -2.1434   -5.3625    0.0000 C   0  0  0  0  0  0  0  0  0  0  0  0
   -2.8579   -4.9500    0.0000 C   0  0  0  0  0  0  0  0  0  0  0  0
   -3.5724   -5.3625    0.0000 C   0  0  0  0  0  0  0  0  0  0  0  0
   -3.5724   -6.1875    0.0000 C   0  0  0  0  0  0  0  0  0  0  0  0
   -4.2868   -6.6000    0.0000 C   0  0  0  0  0  0  0  0  0  0  0  0
   -5.0013   -6.1875    0.0000 C   0  0  0  0  0  0  0  0  0  0  0  0
   -5.0013   -5.3625    0.0000 C   0  0  0  0  0  0  0  0  0  0  0  0
   -4.2868   -4.9500    0.0000 C   0  0  0  0  0  0  0  0  0  0  0  0
   -2.8579   -4.1250    0.0000 C   0  0  0  0  0  0  0  0  0  0  0  0
   -2.1434   -3.7125    0.0000 C   0  0  0  0  0  0  0  0  0  0  0  0
   -1.4289   -4.1250    0.0000 C   0  0  0  0  0  0  0  0  0  0  0  0
   -1.4289   -4.9500    0.0000 C   0  0  0  0  0  0  0  0  0  0  0  0
   -0.7145   -3.7125    0.0000 C   0  0  0  0  0  0  0  0  0  0  0  0
   -0.0000   -4.1250    0.0000 C   0  0  0  0  0  0  0  0  0  0  0  0
    0.7145   -3.7125    0.0000 C   0  0  0  0  0  0  0  0  0  0  0  0
    1.4289   -4.1250    0.0000 C   0  0  0  0  0  0  0  0  0  0  0  0
    2.1434   -3.7125    0.0000 O   0  0  0  0  0  0  0  0  0  0  0  0
    1.4289   -4.9500    0.0000 O   0  0  0  0  0  0  0  0  0  0  0  0
   -0.7145   -2.8875    0.0000 O   0  0  0  0  0  0  0  0  0  0  0  0
  1  2  2  0  0  0  0
  2  3  1  0  0  0  0
  3  4  2  0  0  0  0
  4  5  1  0  0  0  0
  5  6  2  0  0  0  0
  6  7  1  0  0  0  0
  7  8  2  0  0  0  0
  3  8  1  0  0  0  0
  2  9  1  0  0  0  0
  9 10  2  0  0  0  0
 10 11  1  0  0  0  0
 11 12  2  0  0  0  0
  1 12  1  0  0  0  0
 11 13  1  0  0  0  0
 13 14  1  0  0  0  0
 14 15  1  0  0  0  0
 15 16  1  0  0  0  0
 16 17  1  0  0  0  0
 16 18  2  0  0  0  0
 13 19  2  0  0  0  0
M  END
>  <Name>
Fenbufen

>  <CAS>
36330-85-5

>  <Formula>
C16H14O3

>  <MolWt>
254.28 

>  <Bioactivity>
Fenbufen is a non-steroidal anti-inflammatory drug in the propionic acid derivatives class.

>  <Pathways>
Neuroscience

>  <Target>
COX inhibitor

>  <Receptor>
COX1;COX2

>  <Reference>
1. Yang Y, Gao H. Spectrochim Acta A Mol Biomol Spectrosc. 2013 Jan 15;101:119-26. 

$$$$
16595-80-5
  Mrv1561503291623562D          

 16 16  0  0  1  0            999 V2000
   -0.0183   -0.0000    0.0000 C   0  0  0  0  0  0  0  0  0  0  0  0
    0.4666    0.6674    0.0000 N   0  0  0  0  0  0  0  0  0  0  0  0
    1.2512    0.4125    0.0000 C   0  0  0  0  0  0  0  0  0  0  0  0
    2.0359    0.6674    0.0000 S   0  0  0  0  0  0  0  0  0  0  0  0
    2.5208   -0.0000    0.0000 C   0  0  0  0  0  0  0  0  0  0  0  0
    2.0359   -0.6674    0.0000 C   0  0  0  0  0  0  0  0  0  0  0  0
    1.2512   -0.4125    0.0000 N   0  0  0  0  0  0  0  0  0  0  0  0
    0.4666   -0.6674    0.0000 C   0  0  0  0  0  0  0  0  0  0  0  0
   -0.8433   -0.0000    0.0000 C   0  0  0  0  0  0  0  0  0  0  0  0
   -1.2558   -0.7145    0.0000 C   0  0  0  0  0  0  0  0  0  0  0  0
   -2.0808   -0.7145    0.0000 C   0  0  0  0  0  0  0  0  0  0  0  0
   -2.4933    0.0000    0.0000 C   0  0  0  0  0  0  0  0  0  0  0  0
   -2.0808    0.7145    0.0000 C   0  0  0  0  0  0  0  0  0  0  0  0
   -1.2558    0.7145    0.0000 C   0  0  0  0  0  0  0  0  0  0  0  0
    5.7029    0.0000    0.0000 H   0  3  0  0  0  0  0  0  0  0  0  0
    4.8779    0.0000    0.0000 Cl  0  5  0  0  0  0  0  0  0  0  0  0
  1  2  1  0  0  0  0
  2  3  2  0  0  0  0
  3  4  1  0  0  0  0
  4  5  1  0  0  0  0
  5  6  1  0  0  0  0
  6  7  1  0  0  0  0
  3  7  1  0  0  0  0
  7  8  1  0  0  0  0
  1  8  1  0  0  0  0
  1  9  1  0  0  0  0
  9 10  2  0  0  0  0
 10 11  1  0  0  0  0
 11 12  2  0  0  0  0
 12 13  1  0  0  0  0
 13 14  2  0  0  0  0
  9 14  1  0  0  0  0
M  CHG  2  15   1  16  -1
M  END
>  <Name>
Levamisole HCl

>  <CAS>
16595-80-5

>  <Formula>
C11H12N2S.HCl

>  <MolWt>
240.75 

>  <Bioactivity>
(-)-Tetramisole is an antihelminthic drug that has been tried experimentally in rheumatic disorders where it apparently restores the immune response by increasing macrophage chemotaxis and T-lymphocyte function.



>  <Pathways>
Neuroscience

>  <Target>
PLA inhibitor;AChR agonist

>  <Receptor>
PLAP;Neuronal AChR

>  <Reference>
1. Chang YL, et al. J Biomed Mater Res. 2000 Nov;52(2):270-8.

$$$$
1722-62-9
  Mrv1561503291623562D          

 20 19  0  0  0  0            999 V2000
    0.4125    0.0000    0.0000 H   0  3  0  0  0  0  0  0  0  0  0  0
    7.7709   -0.0688    0.0000 C   0  0  0  0  0  0  0  0  0  0  0  0
    7.7709   -0.8937    0.0000 C   0  0  0  0  0  0  0  0  0  0  0  0
    7.0565   -1.3062    0.0000 C   0  0  0  0  0  0  0  0  0  0  0  0
    6.3420   -0.8937    0.0000 C   0  0  0  0  0  0  0  0  0  0  0  0
    6.3420   -0.0687    0.0000 C   0  0  0  0  0  0  0  0  0  0  0  0
    7.0565    0.3437    0.0000 C   0  0  0  0  0  0  0  0  0  0  0  0
    7.0565    1.1687    0.0000 C   0  0  0  0  0  0  0  0  0  0  0  0
    5.6275    0.3437    0.0000 N   0  0  0  0  0  0  0  0  0  0  0  0
    4.9131   -0.0687    0.0000 C   0  0  0  0  0  0  0  0  0  0  0  0
    4.9131   -0.8937    0.0000 O   0  0  0  0  0  0  0  0  0  0  0  0
    4.1986    0.3438    0.0000 C   0  0  0  0  0  0  0  0  0  0  0  0
    3.4841   -0.0687    0.0000 N   0  0  0  0  0  0  0  0  0  0  0  0
    2.7696    0.3438    0.0000 C   0  0  0  0  0  0  0  0  0  0  0  0
    2.7696    1.1688    0.0000 C   0  0  0  0  0  0  0  0  0  0  0  0
    3.4841    1.5813    0.0000 C   0  0  0  0  0  0  0  0  0  0  0  0
    4.1986    1.1687    0.0000 C   0  0  0  0  0  0  0  0  0  0  0  0
    3.4841   -0.8937    0.0000 C   0  0  0  0  0  0  0  0  0  0  0  0
    5.6275   -1.3062    0.0000 C   0  0  0  0  0  0  0  0  0  0  0  0
   -0.4125    0.0000    0.0000 Cl  0  5  0  0  0  0  0  0  0  0  0  0
  2  3  2  0  0  0  0
  3  4  1  0  0  0  0
  4  5  2  0  0  0  0
  5  6  1  0  0  0  0
  6  7  2  0  0  0  0
  2  7  1  0  0  0  0
  7  8  1  0  0  0  0
  6  9  1  0  0  0  0
  9 10  1  0  0  0  0
 10 11  2  0  0  0  0
 10 12  1  0  0  0  0
 12 13  1  0  0  0  0
 13 14  1  0  0  0  0
 14 15  1  0  0  0  0
 15 16  1  0  0  0  0
 16 17  1  0  0  0  0
 12 17  1  0  0  0  0
 13 18  1  0  0  0  0
  5 19  1  0  0  0  0
M  CHG  2   1   1  20  -1
M  END
>  <Name>
Mepivacaine HCl

>  <CAS>
1722-62-9

>  <Formula>
C15H22N2O.HCl

>  <MolWt>
282.81 

>  <Bioactivity>
Mepivacaine is a tertiary amine used as a local anesthetic.

>  <Pathways>
Membrane Transporter/Ion Channel

>  <Target>
Sodium Channel inhibitor

>  <Receptor>
Sodium Channel

>  <Reference>
1. Gough MR, et al. Equine Vet J, 2002, 34(1), 80-84.

$$$$
T0964
  Mrv1561503291623562D          

 17 18  0  0  1  0            999 V2000
    0.7145   -1.2375    0.0000 C   0  0  2  0  0  0  0  0  0  0  0  0
    0.7145   -0.4125    0.0000 N   0  0  0  0  0  0  0  0  0  0  0  0
   -0.0000   -0.0000    0.0000 C   0  0  0  0  0  0  0  0  0  0  0  0
   -0.0000    0.8250    0.0000 N   0  0  0  0  0  0  0  0  0  0  0  0
    0.7145    1.2375    0.0000 C   0  0  0  0  0  0  0  0  0  0  0  0
    0.7145    2.0625    0.0000 O   0  0  0  0  0  0  0  0  0  0  0  0
    1.4289    0.8250    0.0000 C   0  0  0  0  0  0  0  0  0  0  0  0
    1.4289   -0.0000    0.0000 C   0  0  0  0  0  0  0  0  0  0  0  0
    2.1434    1.2375    0.0000 F   0  0  0  0  0  0  0  0  0  0  0  0
   -0.7145   -0.4125    0.0000 O   0  0  0  0  0  0  0  0  0  0  0  0
    1.3819   -1.7224    0.0000 O   0  0  0  0  0  0  0  0  0  0  0  0
    1.1270   -2.5070    0.0000 C   0  0  2  0  0  0  0  0  0  0  0  0
    1.6119   -3.1745    0.0000 C   0  0  0  0  0  0  0  0  0  0  0  0
    2.4324   -3.0882    0.0000 O   0  0  0  0  0  0  0  0  0  0  0  0
    0.3020   -2.5070    0.0000 C   0  0  2  0  0  0  0  0  0  0  0  0
    0.0470   -1.7224    0.0000 C   0  0  0  0  0  0  0  0  0  0  0  0
   -0.1830   -3.1745    0.0000 O   0  0  0  0  0  0  0  0  0  0  0  0
  1  2  1  6  0  0  0
  2  3  1  0  0  0  0
  3  4  1  0  0  0  0
  4  5  1  0  0  0  0
  5  6  2  0  0  0  0
  5  7  1  0  0  0  0
  7  8  2  0  0  0  0
  2  8  1  0  0  0  0
  7  9  1  0  0  0  0
  3 10  2  0  0  0  0
  1 11  1  0  0  0  0
 11 12  1  0  0  0  0
 12 13  1  6  0  0  0
 13 14  1  0  0  0  0
 12 15  1  0  0  0  0
 15 16  1  0  0  0  0
  1 16  1  0  0  0  0
 15 17  1  1  0  0  0
M  END
>  <Name>
Floxuridine

>  <CAS>
50-91-9

>  <Formula>
C9H11FN2O5

>  <MolWt>
246.19 

>  <Bioactivity>
An antineoplastic antimetabolite that is metabolized to fluorouracil when administered by rapid injection; when administered by slow, continuous, intra-arterial infusion, it is converted to floxuridine monophosphate. It has been used to treat hepatic metastases of gastrointestinal adenocarcinomas and for palliation in malignant neoplasms of the liver and gastrointestinal tract.

>  <Pathways>
DNA Damage/DNA Repair

>  <Target>
DNA/RNA Synthesis inhibitor

>  <Receptor>
Thymidylate synthase

>  <Reference>
1. Ferguson PJ, et al. Br J Pharmacol. 1999 Aug; 127(8):1777-86. 

$$$$
1134-47-0
  Mrv1561503291623562D          

 14 14  0  0  0  0            999 V2000
    4.2868   -1.6500    0.0000 C   0  0  0  0  0  0  0  0  0  0  0  0
    4.2868   -2.4750    0.0000 C   0  0  0  0  0  0  0  0  0  0  0  0
    3.5724   -2.8875    0.0000 C   0  0  0  0  0  0  0  0  0  0  0  0
    2.8579   -2.4750    0.0000 C   0  0  0  0  0  0  0  0  0  0  0  0
    2.8579   -1.6500    0.0000 C   0  0  0  0  0  0  0  0  0  0  0  0
    3.5724   -1.2375    0.0000 C   0  0  0  0  0  0  0  0  0  0  0  0
    3.5724   -0.4125    0.0000 C   0  0  0  0  0  0  0  0  0  0  0  0
    2.8579   -0.0000    0.0000 C   0  0  0  0  0  0  0  0  0  0  0  0
    2.8579    0.8250    0.0000 C   0  0  0  0  0  0  0  0  0  0  0  0
    2.1434    1.2375    0.0000 O   0  0  0  0  0  0  0  0  0  0  0  0
    3.5724    1.2375    0.0000 O   0  0  0  0  0  0  0  0  0  0  0  0
    4.2868   -0.0000    0.0000 C   0  0  0  0  0  0  0  0  0  0  0  0
    5.0013   -0.4125    0.0000 N   0  0  0  0  0  0  0  0  0  0  0  0
    3.5724   -3.7125    0.0000 Cl  0  0  0  0  0  0  0  0  0  0  0  0
  1  2  2  0  0  0  0
  2  3  1  0  0  0  0
  3  4  2  0  0  0  0
  4  5  1  0  0  0  0
  5  6  2  0  0  0  0
  1  6  1  0  0  0  0
  6  7  1  0  0  0  0
  7  8  1  0  0  0  0
  8  9  1  0  0  0  0
  9 10  1  0  0  0  0
  9 11  2  0  0  0  0
  7 12  1  0  0  0  0
 12 13  1  0  0  0  0
  3 14  1  0  0  0  0
M  END
>  <Name>
Baclofen

>  <CAS>
1134-47-0

>  <Formula>
C10H12ClNO2

>  <MolWt>
213.66 

>  <Bioactivity>
A GAMMA-AMINOBUTYRIC ACID derivative that is a specific agonist of GABA-B RECEPTORS. It is used in the treatment of MUSCLE SPASTICITY, especially that due to SPINAL CORD INJURIES. Its therapeutic effects result from actions at spinal and supraspinal sites, generally the reduction of excitatory transmission. 

>  <Pathways>
Neuroscience

>  <Target>
GABAR agonist

>  <Receptor>
GABA-B Receptor

>  <Reference>
1. Garcia-Gil L, et al. Neurotoxicol Teratol. 1999 May-Jun;21(3):277-83.

$$$$
1143-38-0
  Mrv1561503291623562D          

 17 19  0  0  0  0            999 V2000
    3.5724    1.2375    0.0000 C   0  0  0  0  0  0  0  0  0  0  0  0
    4.2868    0.8250    0.0000 C   0  0  0  0  0  0  0  0  0  0  0  0
    4.2868   -0.0000    0.0000 C   0  0  0  0  0  0  0  0  0  0  0  0
    3.5724   -0.4125    0.0000 C   0  0  0  0  0  0  0  0  0  0  0  0
    3.5724   -1.2375    0.0000 O   0  0  0  0  0  0  0  0  0  0  0  0
    2.8579   -0.0000    0.0000 C   0  0  0  0  0  0  0  0  0  0  0  0
    2.8579    0.8250    0.0000 C   0  0  0  0  0  0  0  0  0  0  0  0
    2.1434    1.2375    0.0000 C   0  0  0  0  0  0  0  0  0  0  0  0
    1.4289    0.8250    0.0000 C   0  0  0  0  0  0  0  0  0  0  0  0
    1.4289   -0.0000    0.0000 C   0  0  0  0  0  0  0  0  0  0  0  0
    2.1434   -0.4125    0.0000 C   0  0  0  0  0  0  0  0  0  0  0  0
    2.1434   -1.2375    0.0000 O   0  0  0  0  0  0  0  0  0  0  0  0
    0.7145   -0.4125    0.0000 C   0  0  0  0  0  0  0  0  0  0  0  0
   -0.0000    0.0000    0.0000 C   0  0  0  0  0  0  0  0  0  0  0  0
    0.0000    0.8250    0.0000 C   0  0  0  0  0  0  0  0  0  0  0  0
    0.7145    1.2375    0.0000 C   0  0  0  0  0  0  0  0  0  0  0  0
    0.7145   -1.2375    0.0000 O   0  0  0  0  0  0  0  0  0  0  0  0
  1  2  2  0  0  0  0
  2  3  1  0  0  0  0
  3  4  2  0  0  0  0
  4  5  1  0  0  0  0
  4  6  1  0  0  0  0
  6  7  2  0  0  0  0
  1  7  1  0  0  0  0
  7  8  1  0  0  0  0
  8  9  1  0  0  0  0
  9 10  2  0  0  0  0
 10 11  1  0  0  0  0
  6 11  1  0  0  0  0
 11 12  2  0  0  0  0
 10 13  1  0  0  0  0
 13 14  2  0  0  0  0
 14 15  1  0  0  0  0
 15 16  2  0  0  0  0
  9 16  1  0  0  0  0
 13 17  1  0  0  0  0
M  END
>  <Name>
Anthralin

>  <CAS>
1143-38-0

>  <Formula>
C14H10O3

>  <MolWt>
226.23 

>  <Bioactivity>
An anthracene derivative that disrupts MITOCHONDRIA function and structure and is used for the treatment of DERMATOSES, especially PSORIASIS. It may cause FOLLICULITIS. 

>  <Pathways>
Others

>  <Target>
Others

>  <Receptor>
Others

>  <Reference>
1. Durdu M, et al. J Am Acad Dermatol. 2015 Apr;72(4):640-50. 

$$$$
18559-94-9
  Mrv1561503291623562D          

 17 17  0  0  0  0            999 V2000
    1.4289    0.8250    0.0000 C   0  0  0  0  0  0  0  0  0  0  0  0
    1.4289    0.0000    0.0000 C   0  0  0  0  0  0  0  0  0  0  0  0
    0.7145   -0.4125    0.0000 C   0  0  0  0  0  0  0  0  0  0  0  0
   -0.0000    0.0000    0.0000 C   0  0  0  0  0  0  0  0  0  0  0  0
   -0.0000    0.8250    0.0000 C   0  0  0  0  0  0  0  0  0  0  0  0
    0.7145    1.2375    0.0000 C   0  0  0  0  0  0  0  0  0  0  0  0
    0.7145    2.0625    0.0000 C   0  0  0  0  0  0  0  0  0  0  0  0
    0.0000    2.4750    0.0000 C   0  0  0  0  0  0  0  0  0  0  0  0
    0.0000    3.3000    0.0000 N   0  0  0  0  0  0  0  0  0  0  0  0
   -0.7145    3.7125    0.0000 C   0  0  0  0  0  0  0  0  0  0  0  0
   -1.4289    4.1250    0.0000 C   0  0  0  0  0  0  0  0  0  0  0  0
   -1.1270    2.9980    0.0000 C   0  0  0  0  0  0  0  0  0  0  0  0
   -0.3020    4.4270    0.0000 C   0  0  0  0  0  0  0  0  0  0  0  0
    1.4289    2.4750    0.0000 O   0  0  0  0  0  0  0  0  0  0  0  0
    0.7145   -1.2375    0.0000 O   0  0  0  0  0  0  0  0  0  0  0  0
    2.1434   -0.4125    0.0000 C   0  0  0  0  0  0  0  0  0  0  0  0
    2.1434   -1.2375    0.0000 O   0  0  0  0  0  0  0  0  0  0  0  0
  1  2  2  0  0  0  0
  2  3  1  0  0  0  0
  3  4  2  0  0  0  0
  4  5  1  0  0  0  0
  5  6  2  0  0  0  0
  1  6  1  0  0  0  0
  6  7  1  0  0  0  0
  7  8  1  0  0  0  0
  8  9  1  0  0  0  0
  9 10  1  0  0  0  0
 10 11  1  0  0  0  0
 10 12  1  0  0  0  0
 10 13  1  0  0  0  0
  7 14  1  0  0  0  0
  3 15  1  0  0  0  0
  2 16  1  0  0  0  0
 16 17  1  0  0  0  0
M  END
>  <Name>
Salbutamol

>  <CAS>
18559-94-9

>  <Formula>
C13H21NO3

>  <MolWt>
239.31 

>  <Bioactivity>
A short-acting beta-2 adrenergic agonist that is primarily used as a bronchodilator agent to treat ASTHMA. Albuterol is prepared as a racemic mixture of R(-) and S(+) stereoisomers. The stereospecific preparation of R(-) isomer of albuterol is referred to as levalbuterol.

>  <Pathways>
GPCR/G Protein

>  <Target>
Adrenergic Receptor agonist

>  <Receptor>
?-adrenergic receptor

>  <Reference>
1. Brichetto L, et al. Am J Physiol Lung Cell Mol Physiol. 2003 Jan;284(1):L133-9. 

$$$$
75706-12-6
  Mrv1561503291623562D          

 19 20  0  0  0  0            999 V2000
    2.0964   -2.9599    0.0000 C   0  0  0  0  0  0  0  0  0  0  0  0
    1.8414   -3.7445    0.0000 N   0  0  0  0  0  0  0  0  0  0  0  0
    1.0164   -3.7445    0.0000 O   0  0  0  0  0  0  0  0  0  0  0  0
    0.7615   -2.9599    0.0000 C   0  0  0  0  0  0  0  0  0  0  0  0
    1.4289   -2.4750    0.0000 C   0  0  0  0  0  0  0  0  0  0  0  0
    1.4289   -1.6500    0.0000 C   0  0  0  0  0  0  0  0  0  0  0  0
    0.7145   -1.2375    0.0000 N   0  0  0  0  0  0  0  0  0  0  0  0
    0.7145   -0.4125    0.0000 C   0  0  0  0  0  0  0  0  0  0  0  0
   -0.0000   -0.0000    0.0000 C   0  0  0  0  0  0  0  0  0  0  0  0
   -0.0000    0.8250    0.0000 C   0  0  0  0  0  0  0  0  0  0  0  0
    0.7145    1.2375    0.0000 C   0  0  0  0  0  0  0  0  0  0  0  0
    0.7145    2.0625    0.0000 C   0  0  0  0  0  0  0  0  0  0  0  0
    0.7145    2.8875    0.0000 F   0  0  0  0  0  0  0  0  0  0  0  0
    1.5395    2.0625    0.0000 F   0  0  0  0  0  0  0  0  0  0  0  0
   -0.1105    2.0625    0.0000 F   0  0  0  0  0  0  0  0  0  0  0  0
    1.4289    0.8250    0.0000 C   0  0  0  0  0  0  0  0  0  0  0  0
    1.4289   -0.0000    0.0000 C   0  0  0  0  0  0  0  0  0  0  0  0
    2.1434   -1.2375    0.0000 O   0  0  0  0  0  0  0  0  0  0  0  0
   -0.0231   -2.7050    0.0000 C   0  0  0  0  0  0  0  0  0  0  0  0
  1  2  2  0  0  0  0
  2  3  1  0  0  0  0
  3  4  1  0  0  0  0
  4  5  2  0  0  0  0
  1  5  1  0  0  0  0
  5  6  1  0  0  0  0
  6  7  1  0  0  0  0
  7  8  1  0  0  0  0
  8  9  2  0  0  0  0
  9 10  1  0  0  0  0
 10 11  2  0  0  0  0
 11 12  1  0  0  0  0
 12 13  1  0  0  0  0
 12 14  1  0  0  0  0
 12 15  1  0  0  0  0
 11 16  1  0  0  0  0
 16 17  2  0  0  0  0
  8 17  1  0  0  0  0
  6 18  2  0  0  0  0
  4 19  1  0  0  0  0
M  END
>  <Name>
Leflunomide

>  <CAS>
75706-12-6

>  <Formula>
C12H9F3N2O2

>  <MolWt>
270.21 

>  <Bioactivity>
Leflunomide is a pyrimidine synthesis inhibitor belonging to the DMARD (disease-modifying antirheumatic drug) class of drugs, which are chemically and pharmacologically very heterogeneous. Leflunomide was approved by FDA and in many other countries (e.g., Canada, Europe) in 1999. 

>  <Pathways>
Enzyme

>  <Target>
Protein-tyrosine kinase 2 antagonist;AhR agonist;Dehydrogenase inhibitor

>  <Receptor>
Protein-tyrosine kinase 2;AhR;DHODH

>  <Reference>
1. Goldenberg MM. Clin Ther. 1999 Nov;21(11):1837-52; discussion 1821.

$$$$
7414-83-7
  Mrv1561503291623562D          

 13 10  0  0  0  0            999 V2000
    2.4750   -0.8250    0.0000 C   0  0  0  0  0  0  0  0  0  0  0  0
    2.4750   -0.0000    0.0000 C   0  0  0  0  0  0  0  0  0  0  0  0
    3.3000    0.0000    0.0000 P   0  0  0  0  0  0  0  0  0  0  0  0
    3.3000    0.8250    0.0000 O   0  0  0  0  0  0  0  0  0  0  0  0
    3.3000   -0.8250    0.0000 O   0  0  0  0  0  0  0  0  0  0  0  0
    4.1250    0.0000    0.0000 O   0  5  0  0  0  0  0  0  0  0  0  0
    1.6500   -0.0000    0.0000 P   0  0  0  0  0  0  0  0  0  0  0  0
    1.6500    0.8250    0.0000 O   0  0  0  0  0  0  0  0  0  0  0  0
    1.6500   -0.8250    0.0000 O   0  0  0  0  0  0  0  0  0  0  0  0
    0.8250    0.0000    0.0000 O   0  5  0  0  0  0  0  0  0  0  0  0
    2.4750    0.8250    0.0000 O   0  0  0  0  0  0  0  0  0  0  0  0
    4.9500    0.0000    0.0000 Na  0  3  0  0  0  0  0  0  0  0  0  0
    0.0000    0.0000    0.0000 Na  0  3  0  0  0  0  0  0  0  0  0  0
  1  2  1  0  0  0  0
  2  3  1  0  0  0  0
  3  4  1  0  0  0  0
  3  5  2  0  0  0  0
  3  6  1  0  0  0  0
  2  7  1  0  0  0  0
  7  8  1  0  0  0  0
  7  9  2  0  0  0  0
  7 10  1  0  0  0  0
  2 11  1  0  0  0  0
M  CHG  4   6  -1  10  -1  12   1  13   1
M  END
>  <Name>
Sodium etidronate

>  <CAS>
7414-83-7

>  <Formula>
C2H6Na2O7P2

>  <MolWt>
249.99 

>  <Bioactivity>
A diphosphonate which affects calcium metabolism. It inhibits ectopic calcification and slows down bone resorption and bone turnover. 

>  <Pathways>
Metabolism

>  <Target>
HAP antagonist

>  <Receptor>
HAP

>  <Reference>
1. Grases F, et al. Circ J. 2007 Jul; 71(7):1152-6. 

$$$$
56-53-1
  Mrv1561503291623562D          

 20 21  0  0  0  0            999 V2000
    2.1434   -3.7125    0.0000 C   0  0  0  0  0  0  0  0  0  0  0  0
    1.4289   -4.1250    0.0000 C   0  0  0  0  0  0  0  0  0  0  0  0
    1.4289   -4.9500    0.0000 C   0  0  0  0  0  0  0  0  0  0  0  0
    2.1434   -5.3625    0.0000 C   0  0  0  0  0  0  0  0  0  0  0  0
    2.1434   -6.1875    0.0000 C   0  0  0  0  0  0  0  0  0  0  0  0
    2.8579   -6.6000    0.0000 C   0  0  0  0  0  0  0  0  0  0  0  0
    2.8579   -7.4250    0.0000 C   0  0  0  0  0  0  0  0  0  0  0  0
    2.1434   -7.8375    0.0000 C   0  0  0  0  0  0  0  0  0  0  0  0
    2.1434   -8.6625    0.0000 O   0  0  0  0  0  0  0  0  0  0  0  0
    1.4289   -7.4250    0.0000 C   0  0  0  0  0  0  0  0  0  0  0  0
    1.4289   -6.6000    0.0000 C   0  0  0  0  0  0  0  0  0  0  0  0
    2.8579   -4.9500    0.0000 C   0  0  0  0  0  0  0  0  0  0  0  0
    3.5724   -5.3625    0.0000 C   0  0  0  0  0  0  0  0  0  0  0  0
    0.7145   -5.3625    0.0000 C   0  0  0  0  0  0  0  0  0  0  0  0
    0.7145   -6.1875    0.0000 C   0  0  0  0  0  0  0  0  0  0  0  0
    0.7145   -3.7125    0.0000 C   0  0  0  0  0  0  0  0  0  0  0  0
    0.7145   -2.8875    0.0000 C   0  0  0  0  0  0  0  0  0  0  0  0
    1.4289   -2.4750    0.0000 C   0  0  0  0  0  0  0  0  0  0  0  0
    2.1434   -2.8875    0.0000 C   0  0  0  0  0  0  0  0  0  0  0  0
    1.4289   -1.6500    0.0000 O   0  0  0  0  0  0  0  0  0  0  0  0
  1  2  2  0  0  0  0
  2  3  1  0  0  0  0
  3  4  2  0  0  0  0
  4  5  1  0  0  0  0
  5  6  2  0  0  0  0
  6  7  1  0  0  0  0
  7  8  2  0  0  0  0
  8  9  1  0  0  0  0
  8 10  1  0  0  0  0
 10 11  2  0  0  0  0
  5 11  1  0  0  0  0
  4 12  1  0  0  0  0
 12 13  1  0  0  0  0
  3 14  1  0  0  0  0
 14 15  1  0  0  0  0
  2 16  1  0  0  0  0
 16 17  2  0  0  0  0
 17 18  1  0  0  0  0
 18 19  2  0  0  0  0
  1 19  1  0  0  0  0
 18 20  1  0  0  0  0
M  END
>  <Name>
Diethylstilbestrol

>  <CAS>
56-53-1

>  <Formula>
C18H20O2

>  <MolWt>
268.35 

>  <Bioactivity>
A synthetic nonsteroidal estrogen used in the treatment of menopausal and postmenopausal disorders. It was also used formerly as a growth promoter in animals. According to the Fourth Annual Report on Carcinogens (NTP 85-002, 1985), diethylstilbestrol has been listed as a known carcinogen. (Merck, 11th ed) 

>  <Pathways>
Endocrinology/ Hormones

>  <Target>
Estrogen/Progestogen Receptor agonist

>  <Receptor>
Estrogen receptor

>  <Reference>
1. Greschik H, et al. J Biol Chem. 2004 Aug 6;279(32):33639-46. 

$$$$
84611-23-4
  Mrv1561503291623562D          

 15 15  0  0  0  0            999 V2000
    1.2020   -1.2402    0.0000 C   0  0  0  0  0  0  0  0  0  0  0  0
    0.4875   -1.6527    0.0000 C   0  0  0  0  0  0  0  0  0  0  0  0
   -0.2269   -1.2402    0.0000 N   0  0  0  0  0  0  0  0  0  0  0  0
   -0.9414   -1.6527    0.0000 C   0  0  0  0  0  0  0  0  0  0  0  0
   -1.0277   -2.4731    0.0000 C   0  0  0  0  0  0  0  0  0  0  0  0
   -1.8346   -2.6447    0.0000 S   0  0  0  0  0  0  0  0  0  0  0  0
   -2.2471   -1.9302    0.0000 C   0  0  0  0  0  0  0  0  0  0  0  0
   -1.6951   -1.3171    0.0000 C   0  0  0  0  0  0  0  0  0  0  0  0
   -0.4146   -3.0252    0.0000 O   0  0  0  0  0  0  0  0  0  0  0  0
    0.4875   -2.4777    0.0000 O   0  0  0  0  0  0  0  0  0  0  0  0
    1.9165   -1.6527    0.0000 S   0  0  0  0  0  0  0  0  0  0  0  0
    2.6309   -1.2402    0.0000 C   0  0  0  0  0  0  0  0  0  0  0  0
    3.3454   -1.6527    0.0000 C   0  0  0  0  0  0  0  0  0  0  0  0
    4.0599   -1.2402    0.0000 O   0  0  0  0  0  0  0  0  0  0  0  0
    3.3454   -2.4777    0.0000 O   0  0  0  0  0  0  0  0  0  0  0  0
  1  2  1  0  0  0  0
  2  3  1  0  0  0  0
  3  4  1  0  0  0  0
  4  5  1  0  0  0  0
  5  6  1  0  0  0  0
  6  7  1  0  0  0  0
  7  8  1  0  0  0  0
  4  8  1  0  0  0  0
  5  9  2  0  0  0  0
  2 10  2  0  0  0  0
  1 11  1  0  0  0  0
 11 12  1  0  0  0  0
 12 13  1  0  0  0  0
 13 14  1  0  0  0  0
 13 15  2  0  0  0  0
M  END
>  <Name>
Erdosteine

>  <CAS>
84611-23-4

>  <Formula>
C8H11NO4S2

>  <MolWt>
249.30 

>  <Bioactivity>
Erdosteine is a mucolytic. Erdosteine is a thiol derivative developed for the treatment of chronic obstructive bronchitis, including acute infective exacerbation of chronic bronchitis. Erdosteine contains 2 blocked sulfhydryl groups which are released following first-pass metabolism. The 3 active metabolites exhibit mucolytic and free radical scavenging activity. Erdosteine modulates mucus production and viscosity and increases mucociliary transport, thereby improving expectoration. It also exhibits inhibitory activity against the effects of free radicals produced by cigarette smoke. Clinical studies in patients with chronic obstructive lung disease have demonstrated the efficacy and tolerability of erdosteine. Erdosteine 300mg twice daily reduced cough (both frequency and severity) and sputum viscosity more quickly and more effectively than placebo and reduced the adhesivity of sputum more effectively than ambroxol 30mg twice daily. Co-administration of erdosteine and amoxicillin in patients with acute infective exacerbation of chronic bronchitis resulted in higher concentrations of the antibiotic in the sputum, leading to earlier and more pronounced amelioration of clinical symptoms compared with placebo. Erdosteine is associated with a low incidence of adverse events, most of which are gastrointestinal and generally mild. 

>  <Pathways>
Enzyme

>  <Target>
ADA inhibitor

>  <Receptor>
ADA

>  <Reference>
1. Yilmaz HR, et al. Toxicol Ind Health. 2008 Sep;24(8):519-24. 

$$$$
T1323
  Mrv1561503291623562D          

 21 24  0  0  1  0            999 V2000
    3.4397    1.5425    0.0000 C   0  0  1  0  0  0  0  0  0  0  0  0
    3.6783    0.5917    0.0000 O   0  0  0  0  0  0  0  0  0  0  0  0
    4.4045    0.1313    0.0000 O   0  0  0  0  0  0  0  0  0  0  0  0
    4.8609    0.8400    0.0000 C   0  0  1  0  0  0  0  0  0  0  0  0
    4.0289    1.0529    0.0000 O   0  0  0  0  0  0  0  0  0  0  0  0
    3.0962    0.8322    0.0000 C   0  0  1  0  0  0  0  0  0  0  0  0
    2.2814    0.5616    0.0000 O   0  0  0  0  0  0  0  0  0  0  0  0
    1.5762    1.0192    0.0000 C   0  0  2  0  0  0  0  0  0  0  0  0
    0.7938    0.7578    0.0000 O   0  0  0  0  0  0  0  0  0  0  0  0
    0.6290   -0.0506    0.0000 C   0  0  0  0  0  0  0  0  0  0  0  0
    1.8648    1.8093    0.0000 C   0  0  1  0  0  0  0  0  0  0  0  0
    2.6974    2.0420    0.0000 C   0  0  2  0  0  0  0  0  0  0  0  0
    2.6013    2.8969    0.0000 C   0  0  0  0  0  0  0  0  0  0  0  0
    3.1648    3.5164    0.0000 C   0  0  0  0  0  0  0  0  0  0  0  0
    3.8840    3.0853    0.0000 C   0  0  2  0  0  0  0  0  0  0  0  0
    4.0004    2.2380    0.0000 C   0  0  2  0  0  0  0  0  0  0  0  0
    4.8579    2.2268    0.0000 C   0  0  0  0  0  0  0  0  0  0  0  0
    5.3467    1.5377    0.0000 C   0  0  0  0  0  0  0  0  0  0  0  0
    4.5724    3.5399    0.0000 C   0  0  0  0  0  0  0  0  0  0  0  0
    1.3045    2.4149    0.0000 C   0  0  0  0  0  0  0  0  0  0  0  0
    5.5464    0.3809    0.0000 C   0  0  0  0  0  0  0  0  0  0  0  0
  1  2  1  1  0  0  0
  2  3  1  0  0  0  0
  3  4  1  0  0  0  0
  4  5  1  0  0  0  0
  6  5  1  1  0  0  0
  1  6  1  0  0  0  0
  6  7  1  0  0  0  0
  7  8  1  0  0  0  0
  8  9  1  6  0  0  0
  9 10  1  0  0  0  0
  8 11  1  0  0  0  0
 11 12  1  0  0  0  0
  1 12  1  0  0  0  0
 12 13  1  6  0  0  0
 13 14  1  0  0  0  0
 14 15  1  0  0  0  0
 15 16  1  0  0  0  0
  1 16  1  0  0  0  0
 16 17  1  6  0  0  0
 17 18  1  0  0  0  0
  4 18  1  0  0  0  0
 15 19  1  1  0  0  0
 11 20  1  6  0  0  0
  4 21  1  6  0  0  0
M  END
>  <Name>
Artemether

>  <CAS>
71963-77-4

>  <Formula>
C16H26O5

>  <MolWt>
298.38 

>  <Bioactivity>
Artemether is an antimalarial agent used to treat acute uncomplicated malaria. It is administered in combination with lumefantrine for improved efficacy. This combination therapy exerts its effects against the erythrocytic stages of Plasmodium spp. and may be used to treat infections caused by P. falciparum and unidentified Plasmodium species, including infections acquired in chloroquine-resistant areas. 

>  <Pathways>
Microbiology & Virology

>  <Target>
Antibiotic

>  <Receptor>
Others

>  <Reference>
1. Ma Y, et al. Antimicrob Agents Chemother. 2014 Oct;58(10):5658-65. 

$$$$
53716-49-7
  Mrv1561503291623562D          

 19 21  0  0  0  0            999 V2000
    2.8985    1.1971    0.0000 C   0  0  0  0  0  0  0  0  0  0  0  0
    3.7054    1.0256    0.0000 C   0  0  0  0  0  0  0  0  0  0  0  0
    3.9604    0.2410    0.0000 C   0  0  0  0  0  0  0  0  0  0  0  0
    3.4084   -0.3721    0.0000 C   0  0  0  0  0  0  0  0  0  0  0  0
    2.6014   -0.2006    0.0000 C   0  0  0  0  0  0  0  0  0  0  0  0
    2.3464    0.5840    0.0000 C   0  0  0  0  0  0  0  0  0  0  0  0
    1.5214    0.5840    0.0000 C   0  0  0  0  0  0  0  0  0  0  0  0
    1.2665   -0.2006    0.0000 C   0  0  0  0  0  0  0  0  0  0  0  0
    0.4595   -0.3721    0.0000 C   0  0  0  0  0  0  0  0  0  0  0  0
   -0.0925    0.2410    0.0000 C   0  0  0  0  0  0  0  0  0  0  0  0
    0.1624    1.0256    0.0000 C   0  0  0  0  0  0  0  0  0  0  0  0
    0.9694    1.1971    0.0000 C   0  0  0  0  0  0  0  0  0  0  0  0
   -0.3896    1.6387    0.0000 Cl  0  0  0  0  0  0  0  0  0  0  0  0
    1.9339   -0.6855    0.0000 N   0  0  0  0  0  0  0  0  0  0  0  0
    4.7674    0.0694    0.0000 C   0  0  0  0  0  0  0  0  0  0  0  0
    5.0223   -0.7152    0.0000 C   0  0  0  0  0  0  0  0  0  0  0  0
    5.8293   -0.8867    0.0000 O   0  0  0  0  0  0  0  0  0  0  0  0
    4.4703   -1.3283    0.0000 O   0  0  0  0  0  0  0  0  0  0  0  0
    5.3194    0.6825    0.0000 C   0  0  0  0  0  0  0  0  0  0  0  0
  1  2  2  0  0  0  0
  2  3  1  0  0  0  0
  3  4  2  0  0  0  0
  4  5  1  0  0  0  0
  5  6  2  0  0  0  0
  1  6  1  0  0  0  0
  6  7  1  0  0  0  0
  7  8  2  0  0  0  0
  8  9  1  0  0  0  0
  9 10  2  0  0  0  0
 10 11  1  0  0  0  0
 11 12  2  0  0  0  0
  7 12  1  0  0  0  0
 11 13  1  0  0  0  0
  8 14  1  0  0  0  0
  5 14  1  0  0  0  0
  3 15  1  0  0  0  0
 15 16  1  0  0  0  0
 16 17  1  0  0  0  0
 16 18  2  0  0  0  0
 15 19  1  0  0  0  0
M  END
>  <Name>
Carprofen

>  <CAS>
53716-49-7

>  <Formula>
C15H12ClNO2

>  <MolWt>
273.71 

>  <Bioactivity>
Carprofen is a non-steroidal anti-inflammatory drug (NSAID) that is used by veterinarians as a supportive treatment for the relief of arthritic symptoms in geriatric dogs. Carprofen was previously used in human medicine for over 10 years (1985-1995). It was generally well tolerated, with the majority of adverse effects being mild, such as gastro-intestinal pain and nausea, similar to those recorded with aspirin and other non-steroidal anti-inflammatory drugs. It is no longer marketed for human usage, after being withdrawn on commercial grounds. 

>  <Pathways>
Neuroscience

>  <Target>
COX inhibitor

>  <Receptor>
Prostaglandin G/H synthase

>  <Reference>
1. Kay-Mugford P, et al. Am J Vet Res. 2000 Jul; 61(7): 802-10.

$$$$
57-63-6
  Mrv1561503291623562D          

 22 25  0  0  1  0            999 V2000
    3.6826    0.6076    0.0000 C   0  0  1  0  0  0  0  0  0  0  0  0
    3.9629   -0.1684    0.0000 C   0  0  1  0  0  0  0  0  0  0  0  0
    4.7875   -0.1416    0.0000 C   0  0  1  0  0  0  0  0  0  0  0  0
    5.5996   -0.2868    0.0000 C   0  0  0  0  0  0  0  0  0  0  0  0
    6.4118   -0.4320    0.0000 C   0  0  0  0  0  0  0  0  0  0  0  0
    4.7280   -0.9644    0.0000 O   0  0  0  0  0  0  0  0  0  0  0  0
    5.0168    0.6509    0.0000 C   0  0  0  0  0  0  0  0  0  0  0  0
    4.3340    1.1139    0.0000 C   0  0  0  0  0  0  0  0  0  0  0  0
    3.4311   -0.7991    0.0000 C   0  0  0  0  0  0  0  0  0  0  0  0
    2.6190   -0.6539    0.0000 C   0  0  0  0  0  0  0  0  0  0  0  0
    2.3387    0.1221    0.0000 C   0  0  1  0  0  0  0  0  0  0  0  0
    2.8705    0.7528    0.0000 C   0  0  1  0  0  0  0  0  0  0  0  0
    2.5902    1.5287    0.0000 C   0  0  0  0  0  0  0  0  0  0  0  0
    1.7781    1.6739    0.0000 C   0  0  0  0  0  0  0  0  0  0  0  0
    1.2463    1.0432    0.0000 C   0  0  0  0  0  0  0  0  0  0  0  0
    1.5266    0.2673    0.0000 C   0  0  0  0  0  0  0  0  0  0  0  0
    0.9948   -0.3634    0.0000 C   0  0  0  0  0  0  0  0  0  0  0  0
    0.1827   -0.2182    0.0000 C   0  0  0  0  0  0  0  0  0  0  0  0
   -0.0976    0.5577    0.0000 C   0  0  0  0  0  0  0  0  0  0  0  0
    0.4342    1.1884    0.0000 C   0  0  0  0  0  0  0  0  0  0  0  0
   -0.9098    0.7029    0.0000 O   0  0  0  0  0  0  0  0  0  0  0  0
    4.3228   -0.9107    0.0000 C   0  0  0  0  0  0  0  0  0  0  0  0
  1  2  1  0  0  0  0
  2  3  1  0  0  0  0
  3  4  1  1  0  0  0
  4  5  3  0  0  0  0
  3  6  1  6  0  0  0
  3  7  1  0  0  0  0
  7  8  1  0  0  0  0
  1  8  1  6  0  0  0
  2  9  1  0  0  0  0
  9 10  1  0  0  0  0
 10 11  1  0  0  0  0
 11 12  1  0  0  0  0
  1 12  1  0  0  0  0
 12 13  1  1  0  0  0
 13 14  1  0  0  0  0
 14 15  1  0  0  0  0
 15 16  2  0  0  0  0
 11 16  1  6  0  0  0
 16 17  1  0  0  0  0
 17 18  2  0  0  0  0
 18 19  1  0  0  0  0
 19 20  2  0  0  0  0
 15 20  1  0  0  0  0
 19 21  1  0  0  0  0
  2 22  1  6  0  0  0
M  END
>  <Name>
Ethynyl estradiol

>  <CAS>
57-63-6

>  <Formula>
C20H24O2

>  <MolWt>
296.41 

>  <Bioactivity>
Ethynyl estradiol is an orally bio-active estrogen used in almost all modern formulations of combined oral contraceptive pills. EE is hormonally effective by activating the estrogen receptor and thus is an estrogen. It finds its most common use in the estrogen-progestin combination preparations of oral contraceptives. 

>  <Pathways>
Endocrinology/ Hormones

>  <Target>
Estrogen/Progestogen Receptor agonist

>  <Receptor>
Estrogen Receptor

>  <Reference>
1. Micevych PE, et al. Endocrinology. 2007, 148(2):782-9. 

$$$$
68-22-4
  Mrv1561503291623562D          

 22 25  0  0  1  0            999 V2000
    3.6826    0.2174    0.0000 C   0  0  1  0  0  0  0  0  0  0  0  0
    3.9629    0.9934    0.0000 C   0  0  1  0  0  0  0  0  0  0  0  0
    4.7875    0.9666    0.0000 C   0  0  1  0  0  0  0  0  0  0  0  0
    5.5996    1.1118    0.0000 C   0  0  0  0  0  0  0  0  0  0  0  0
    6.4118    1.2570    0.0000 C   0  0  0  0  0  0  0  0  0  0  0  0
    4.7280    1.7894    0.0000 O   0  0  0  0  0  0  0  0  0  0  0  0
    5.0168    0.1741    0.0000 C   0  0  0  0  0  0  0  0  0  0  0  0
    4.3340   -0.2889    0.0000 C   0  0  0  0  0  0  0  0  0  0  0  0
    3.4311    1.6241    0.0000 C   0  0  0  0  0  0  0  0  0  0  0  0
    2.6190    1.4789    0.0000 C   0  0  0  0  0  0  0  0  0  0  0  0
    2.3387    0.7029    0.0000 C   0  0  1  0  0  0  0  0  0  0  0  0
    2.8705    0.0722    0.0000 C   0  0  1  0  0  0  0  0  0  0  0  0
    2.5902   -0.7037    0.0000 C   0  0  0  0  0  0  0  0  0  0  0  0
    1.7781   -0.8489    0.0000 C   0  0  0  0  0  0  0  0  0  0  0  0
    1.2463   -0.2182    0.0000 C   0  0  0  0  0  0  0  0  0  0  0  0
    0.4342   -0.3634    0.0000 C   0  0  0  0  0  0  0  0  0  0  0  0
   -0.0976    0.2673    0.0000 C   0  0  0  0  0  0  0  0  0  0  0  0
   -0.9098    0.1221    0.0000 O   0  0  0  0  0  0  0  0  0  0  0  0
    0.1827    1.0432    0.0000 C   0  0  0  0  0  0  0  0  0  0  0  0
    0.9948    1.1884    0.0000 C   0  0  0  0  0  0  0  0  0  0  0  0
    1.5266    0.5577    0.0000 C   0  0  2  0  0  0  0  0  0  0  0  0
    4.3228    1.7357    0.0000 C   0  0  0  0  0  0  0  0  0  0  0  0
  1  2  1  0  0  0  0
  2  3  1  0  0  0  0
  3  4  1  6  0  0  0
  4  5  3  0  0  0  0
  3  6  1  1  0  0  0
  3  7  1  0  0  0  0
  7  8  1  0  0  0  0
  1  8  1  1  0  0  0
  2  9  1  0  0  0  0
  9 10  1  0  0  0  0
 11 10  1  1  0  0  0
 11 12  1  0  0  0  0
  1 12  1  0  0  0  0
 12 13  1  6  0  0  0
 13 14  1  0  0  0  0
 14 15  1  0  0  0  0
 15 16  2  0  0  0  0
 16 17  1  0  0  0  0
 17 18  2  0  0  0  0
 17 19  1  0  0  0  0
 19 20  1  0  0  0  0
 20 21  1  0  0  0  0
 11 21  1  0  0  0  0
 21 15  1  6  0  0  0
  2 22  1  1  0  0  0
M  END
>  <Name>
Norethindrone

>  <CAS>
68-22-4

>  <Formula>
C20H26O2

>  <MolWt>
298.42 

>  <Bioactivity>
A synthetic progestational hormone with actions similar to those of PROGESTERONE but functioning as a more potent inhibitor of ovulation. It has weak estrogenic and androgenic properties. The hormone has been used in treating amenorrhea, functional uterine bleeding, endometriosis, and for contraception. 

>  <Pathways>
Endocrinology/ Hormones

>  <Target>
Estrogen/Progestogen Receptor agonist

>  <Receptor>
Estrogen/progestogen Receptor

>  <Reference>
1. Mendoza-Rodriguez CA, et al. Contraception. 1999 May;59(5):339-43.

$$$$
30652-11-0
  Mrv1561503291623562D          

 10 10  0  0  0  0            999 V2000
    0.7145    2.0625    0.0000 C   0  0  0  0  0  0  0  0  0  0  0  0
    0.7145    1.2375    0.0000 C   0  0  0  0  0  0  0  0  0  0  0  0
    1.4289    0.8250    0.0000 C   0  0  0  0  0  0  0  0  0  0  0  0
    1.4289    0.0000    0.0000 C   0  0  0  0  0  0  0  0  0  0  0  0
    0.7145   -0.4125    0.0000 C   0  0  0  0  0  0  0  0  0  0  0  0
    0.0000   -0.0000    0.0000 C   0  0  0  0  0  0  0  0  0  0  0  0
    0.0000    0.8250    0.0000 N   0  0  0  0  0  0  0  0  0  0  0  0
   -0.7145    1.2375    0.0000 C   0  0  0  0  0  0  0  0  0  0  0  0
    2.1434   -0.4125    0.0000 O   0  0  0  0  0  0  0  0  0  0  0  0
    2.1434    1.2375    0.0000 O   0  0  0  0  0  0  0  0  0  0  0  0
  1  2  1  0  0  0  0
  2  3  2  0  0  0  0
  3  4  1  0  0  0  0
  4  5  1  0  0  0  0
  5  6  2  0  0  0  0
  6  7  1  0  0  0  0
  2  7  1  0  0  0  0
  7  8  1  0  0  0  0
  4  9  2  0  0  0  0
  3 10  1  0  0  0  0
M  END
>  <Name>
Deferidone

>  <CAS>
30652-11-0

>  <Formula>
C7H9NO2

>  <MolWt>
139.15 

>  <Bioactivity>
Deferiprone is an oral iron chelator used as a second line agent in thalassemia syndromes when iron overload from blood transfusions occurs. Thalassemias are a type of hereditary anaemia due a defect in the production of hemoglobin. As a result, erythropoiesis, the production of new red blood cells, is impaired. FDA approved on October 14, 2011.  

>  <Pathways>
Others

>  <Target>
Chelator;UGT inhibitor

>  <Receptor>
iron;UGT1-6

>  <Reference>
1. Barnabé N, et al. Free Radic Biol Med, 2002, 33(2), 266-275.

$$$$
93413-62-8
  Mrv1561503291623562D          

 19 20  0  0  0  0            999 V2000
    1.3949   -2.1825    0.0000 C   0  0  0  0  0  0  0  0  0  0  0  0
    1.3949   -3.0075    0.0000 C   0  0  0  0  0  0  0  0  0  0  0  0
    0.6804   -3.4200    0.0000 C   0  0  0  0  0  0  0  0  0  0  0  0
   -0.0340   -3.0075    0.0000 C   0  0  0  0  0  0  0  0  0  0  0  0
   -0.0340   -2.1825    0.0000 C   0  0  0  0  0  0  0  0  0  0  0  0
    0.6804   -1.7700    0.0000 C   0  0  0  0  0  0  0  0  0  0  0  0
    0.6804   -0.9450    0.0000 O   0  0  0  0  0  0  0  0  0  0  0  0
    0.6804   -4.2450    0.0000 C   0  0  0  0  0  0  0  0  0  0  0  0
   -0.0340   -4.6575    0.0000 C   0  0  0  0  0  0  0  0  0  0  0  0
   -0.0340   -5.4825    0.0000 N   0  0  0  0  0  0  0  0  0  0  0  0
    0.6804   -5.8950    0.0000 C   0  0  0  0  0  0  0  0  0  0  0  0
   -0.7485   -5.8950    0.0000 C   0  0  0  0  0  0  0  0  0  0  0  0
    1.3949   -4.6575    0.0000 C   0  0  0  0  0  0  0  0  0  0  0  0
    2.2074   -4.8007    0.0000 C   0  0  0  0  0  0  0  0  0  0  0  0
    2.4895   -5.5760    0.0000 C   0  0  0  0  0  0  0  0  0  0  0  0
    1.9592   -6.2080    0.0000 C   0  0  0  0  0  0  0  0  0  0  0  0
    1.1468   -6.0647    0.0000 C   0  0  0  0  0  0  0  0  0  0  0  0
    0.8646   -5.2895    0.0000 C   0  0  0  0  0  0  0  0  0  0  0  0
    1.6771   -3.8822    0.0000 O   0  0  0  0  0  0  0  0  0  0  0  0
  1  2  2  0  0  0  0
  2  3  1  0  0  0  0
  3  4  2  0  0  0  0
  4  5  1  0  0  0  0
  5  6  2  0  0  0  0
  1  6  1  0  0  0  0
  6  7  1  0  0  0  0
  3  8  1  0  0  0  0
  8  9  1  0  0  0  0
  9 10  1  0  0  0  0
 10 11  1  0  0  0  0
 10 12  1  0  0  0  0
  8 13  1  0  0  0  0
 13 14  1  0  0  0  0
 14 15  1  0  0  0  0
 15 16  1  0  0  0  0
 16 17  1  0  0  0  0
 17 18  1  0  0  0  0
 13 18  1  0  0  0  0
 13 19  1  0  0  0  0
M  END
>  <Name>
Desvenlafaxine

>  <CAS>
93413-62-8

>  <Formula>
C16H25NO2

>  <MolWt>
263.38 

>  <Bioactivity>
Desvenlafaxine (O-desmethylvenlafaxine) the major active metabolite of venlafaxine, is an antidepressant from the serotonin-norepinephrine reuptake inhibitor (SNRI class). Desvenlafaxine may be used to treat major depressive disorder and is being studied for use in the management of vasomotor symptoms in postmenopausal women. It is formulated as an extended release tablet. FDA approved in 2008. 

>  <Pathways>
Neuroscience

>  <Target>
Noradrenaline uptake inhibitor;Serotonin uptake inhibitor

>  <Receptor>
Sodium-dependent noradrenaline transporter;Sodium-dependent serotonin transporter

>  <Reference>
1. Deecher DC, et al. J Pharmacol Exp Ther. 2006 Aug;318(2):657-65.

$$$$
23031-32-5
  Mrv1561503291623562D          

 37 36  0  0  0  0            999 V2000
    1.1610   -0.8766    0.0000 C   0  0  0  0  0  0  0  0  0  0  0  0
    1.1610   -1.7016    0.0000 C   0  0  0  0  0  0  0  0  0  0  0  0
    0.4465   -2.1141    0.0000 C   0  0  0  0  0  0  0  0  0  0  0  0
   -0.2679   -1.7016    0.0000 C   0  0  0  0  0  0  0  0  0  0  0  0
   -0.2679   -0.8766    0.0000 C   0  0  0  0  0  0  0  0  0  0  0  0
    0.4465   -0.4641    0.0000 C   0  0  0  0  0  0  0  0  0  0  0  0
    0.4465    0.3609    0.0000 C   0  0  0  0  0  0  0  0  0  0  0  0
   -0.2679    0.7734    0.0000 C   0  0  0  0  0  0  0  0  0  0  0  0
   -0.2679    1.5984    0.0000 N   0  0  0  0  0  0  0  0  0  0  0  0
   -0.9824    2.0109    0.0000 C   0  0  0  0  0  0  0  0  0  0  0  0
   -1.6969    2.4234    0.0000 C   0  0  0  0  0  0  0  0  0  0  0  0
   -0.5699    2.7254    0.0000 C   0  0  0  0  0  0  0  0  0  0  0  0
   -1.3949    1.2965    0.0000 C   0  0  0  0  0  0  0  0  0  0  0  0
    1.1610    0.7734    0.0000 O   0  0  0  0  0  0  0  0  0  0  0  0
   -0.9824   -2.1141    0.0000 O   0  0  0  0  0  0  0  0  0  0  0  0
    1.8755   -2.1141    0.0000 O   0  0  0  0  0  0  0  0  0  0  0  0
    7.0905   -0.8766    0.0000 C   0  0  0  0  0  0  0  0  0  0  0  0
    7.0905   -1.7016    0.0000 C   0  0  0  0  0  0  0  0  0  0  0  0
    6.3760   -2.1141    0.0000 C   0  0  0  0  0  0  0  0  0  0  0  0
    5.6616   -1.7016    0.0000 C   0  0  0  0  0  0  0  0  0  0  0  0
    5.6616   -0.8766    0.0000 C   0  0  0  0  0  0  0  0  0  0  0  0
    6.3760   -0.4641    0.0000 C   0  0  0  0  0  0  0  0  0  0  0  0
    6.3760    0.3609    0.0000 C   0  0  0  0  0  0  0  0  0  0  0  0
    5.6616    0.7734    0.0000 C   0  0  0  0  0  0  0  0  0  0  0  0
    5.6616    1.5984    0.0000 N   0  0  0  0  0  0  0  0  0  0  0  0
    4.9471    2.0109    0.0000 C   0  0  0  0  0  0  0  0  0  0  0  0
    4.2326    2.4234    0.0000 C   0  0  0  0  0  0  0  0  0  0  0  0
    5.3596    2.7254    0.0000 C   0  0  0  0  0  0  0  0  0  0  0  0
    4.5346    1.2965    0.0000 C   0  0  0  0  0  0  0  0  0  0  0  0
    7.0905    0.7734    0.0000 O   0  0  0  0  0  0  0  0  0  0  0  0
    4.9471   -2.1141    0.0000 O   0  0  0  0  0  0  0  0  0  0  0  0
    7.8050   -2.1141    0.0000 O   0  0  0  0  0  0  0  0  0  0  0  0
    0.0000   -5.4141    0.0000 O   0  0  0  0  0  0  0  0  0  0  0  0
    0.0000   -4.5891    0.0000 S   0  0  0  0  0  0  0  0  0  0  0  0
    0.0000   -3.7641    0.0000 O   0  0  0  0  0  0  0  0  0  0  0  0
    0.8250   -4.5891    0.0000 O   0  0  0  0  0  0  0  0  0  0  0  0
   -0.8250   -4.5891    0.0000 O   0  0  0  0  0  0  0  0  0  0  0  0
  1  2  2  0  0  0  0
  2  3  1  0  0  0  0
  3  4  2  0  0  0  0
  4  5  1  0  0  0  0
  5  6  2  0  0  0  0
  1  6  1  0  0  0  0
  6  7  1  0  0  0  0
  7  8  1  0  0  0  0
  8  9  1  0  0  0  0
  9 10  1  0  0  0  0
 10 11  1  0  0  0  0
 10 12  1  0  0  0  0
 10 13  1  0  0  0  0
  7 14  1  0  0  0  0
  4 15  1  0  0  0  0
  2 16  1  0  0  0  0
 17 18  2  0  0  0  0
 18 19  1  0  0  0  0
 19 20  2  0  0  0  0
 20 21  1  0  0  0  0
 21 22  2  0  0  0  0
 17 22  1  0  0  0  0
 22 23  1  0  0  0  0
 23 24  1  0  0  0  0
 24 25  1  0  0  0  0
 25 26  1  0  0  0  0
 26 27  1  0  0  0  0
 26 28  1  0  0  0  0
 26 29  1  0  0  0  0
 23 30  1  0  0  0  0
 20 31  1  0  0  0  0
 18 32  1  0  0  0  0
 33 34  2  0  0  0  0
 34 35  1  0  0  0  0
 34 36  1  0  0  0  0
 34 37  2  0  0  0  0
M  END
>  <Name>
Terbutaline Sulfate

>  <CAS>
23031-32-5

>  <Formula>
C12H21NO7S

>  <MolWt>
274.32 

>  <Bioactivity>
A selective beta-2 adrenergic agonist used as a bronchodilator and tocolytic.

>  <Pathways>
GPCR/G Protein

>  <Target>
Adrenergic Receptor antagonist

>  <Receptor>
?-adrenergic receptor

>  <Reference>
1. Petersson BA. Allergy, 1984, 39(5), 351-357.

$$$$
107868-30-4
  Mrv1561503291623562D          

 22 25  0  0  1  0            999 V2000
    1.5596   -2.8327    0.0000 C   0  0  1  0  0  0  0  0  0  0  0  0
    2.0914   -3.4634    0.0000 C   0  0  1  0  0  0  0  0  0  0  0  0
    2.9035   -3.3182    0.0000 C   0  0  2  0  0  0  0  0  0  0  0  0
    3.1838   -2.5422    0.0000 C   0  0  0  0  0  0  0  0  0  0  0  0
    3.9960   -2.3970    0.0000 C   0  0  0  0  0  0  0  0  0  0  0  0
    4.5278   -3.0277    0.0000 C   0  0  0  0  0  0  0  0  0  0  0  0
    5.3399   -2.8825    0.0000 O   0  0  0  0  0  0  0  0  0  0  0  0
    4.2475   -3.8037    0.0000 C   0  0  0  0  0  0  0  0  0  0  0  0
    3.4354   -3.9489    0.0000 C   0  0  0  0  0  0  0  0  0  0  0  0
    2.6520   -1.9115    0.0000 C   0  0  0  0  0  0  0  0  0  0  0  0
    1.8399   -2.0567    0.0000 C   0  0  0  0  0  0  0  0  0  0  0  0
    2.9323   -1.1356    0.0000 C   0  0  0  0  0  0  0  0  0  0  0  0
    2.6232   -4.0941    0.0000 C   0  0  0  0  0  0  0  0  0  0  0  0
    1.8111   -4.2393    0.0000 C   0  0  0  0  0  0  0  0  0  0  0  0
    0.9990   -4.3845    0.0000 C   0  0  0  0  0  0  0  0  0  0  0  0
    0.4672   -3.7538    0.0000 C   0  0  1  0  0  0  0  0  0  0  0  0
    0.7475   -2.9779    0.0000 C   0  0  1  0  0  0  0  0  0  0  0  0
    0.0962   -2.4715    0.0000 C   0  0  0  0  0  0  0  0  0  0  0  0
   -0.5867   -2.9345    0.0000 C   0  0  0  0  0  0  0  0  0  0  0  0
   -0.3574   -3.7270    0.0000 C   0  0  0  0  0  0  0  0  0  0  0  0
   -0.8637   -4.3783    0.0000 O   0  0  0  0  0  0  0  0  0  0  0  0
    0.1073   -4.4962    0.0000 C   0  0  0  0  0  0  0  0  0  0  0  0
  1  2  1  0  0  0  0
  2  3  1  0  0  0  0
  3  4  1  0  0  0  0
  4  5  2  0  0  0  0
  5  6  1  0  0  0  0
  6  7  2  0  0  0  0
  6  8  1  0  0  0  0
  8  9  2  0  0  0  0
  3  9  1  0  0  0  0
  4 10  1  0  0  0  0
 10 11  1  0  0  0  0
  1 11  1  6  0  0  0
 10 12  2  0  0  0  0
  3 13  1  1  0  0  0
  2 14  1  1  0  0  0
 14 15  1  0  0  0  0
 15 16  1  0  0  0  0
 16 17  1  0  0  0  0
  1 17  1  0  0  0  0
 17 18  1  1  0  0  0
 18 19  1  0  0  0  0
 19 20  1  0  0  0  0
 16 20  1  0  0  0  0
 20 21  2  0  0  0  0
 16 22  1  1  0  0  0
M  END
>  <Name>
Exemestane

>  <CAS>
107868-30-4

>  <Formula>
C20H24O2

>  <MolWt>
296.40 

>  <Bioactivity>
Exemestane is an oral steroidal aromatase inhibitor used in the adjuvant treatment of hormonally-responsive (also called hormone-receptor-positive, estrogen-responsive) breast cancer in postmenopausal women. It acts as a false substrate for the aromatase enzyme, and is processed to an intermediate that binds irreversibly to the active site of the enzyme causing its inactivation.  

>  <Pathways>
Enzyme

>  <Target>
Aromatase inhibitor

>  <Receptor>
Aromatase

>  <Reference>
1. Wang X, et al. Cancer Res, 2006, 66(21), 10281-10286.

$$$$
T1591
  Mrv1561503291623562D          

 18 18  0  0  1  0            999 V2000
    0.2536    0.2571    0.0000 C   0  0  0  0  0  0  0  0  0  0  0  0
    0.9113    0.7551    0.0000 O   0  0  0  0  0  0  0  0  0  0  0  0
    1.5882    0.2834    0.0000 C   0  0  0  0  0  0  0  0  0  0  0  0
    2.3676    0.5538    0.0000 C   0  0  0  0  0  0  0  0  0  0  0  0
    2.5232    1.3640    0.0000 O   0  0  0  0  0  0  0  0  0  0  0  0
    1.3488   -0.5061    0.0000 C   0  0  0  0  0  0  0  0  0  0  0  0
    1.8468   -1.1638    0.0000 O   0  0  0  0  0  0  0  0  0  0  0  0
    0.5239   -0.5223    0.0000 C   0  0  0  0  0  0  0  0  0  0  0  0
   -0.1338   -1.0203    0.0000 O   0  0  0  0  0  0  0  0  0  0  0  0
   -0.8107   -0.5487    0.0000 C   0  0  0  0  0  0  0  0  0  0  0  0
   -1.6141   -0.7361    0.0000 N   0  0  0  0  0  0  0  0  0  0  0  0
   -2.1781   -0.1340    0.0000 C   0  0  0  0  0  0  0  0  0  0  0  0
   -2.9816   -0.3214    0.0000 N   0  0  0  0  0  0  0  0  0  0  0  0
   -1.9387    0.6555    0.0000 C   0  0  0  0  0  0  0  0  0  0  0  0
   -1.1353    0.8429    0.0000 C   0  0  0  0  0  0  0  0  0  0  0  0
   -0.5713    0.2408    0.0000 N   0  0  0  0  0  0  0  0  0  0  0  0
    5.7054    0.0000    0.0000 H   0  3  0  0  0  0  0  0  0  0  0  0
    4.8804    0.0000    0.0000 Cl  0  5  0  0  0  0  0  0  0  0  0  0
  1  2  1  0  0  0  0
  2  3  1  0  0  0  0
  3  4  1  0  0  0  0
  4  5  1  0  0  0  0
  3  6  1  0  0  0  0
  6  7  1  0  0  0  0
  6  8  1  0  0  0  0
  1  8  1  0  0  0  0
  8  9  1  0  0  0  0
  9 10  1  0  0  0  0
 10 11  2  0  0  0  0
 11 12  1  0  0  0  0
 12 13  2  0  0  0  0
 12 14  1  0  0  0  0
 14 15  2  0  0  0  0
 15 16  1  0  0  0  0
  1 16  1  0  0  0  0
 10 16  1  0  0  0  0
M  CHG  2  17   1  18  -1
M  END
>  <Name>
Cyclocytidine HCl

>  <CAS>
10212-25-6

>  <Formula>
C9H12ClN3O4

>  <MolWt>
261.66 

>  <Bioactivity>
Cyclocytidine is the prodrug of cytarabine, which is a pyrimidine nucleoside analog that inhibits the DNA synthesis and used mainly in the treatment of leukemia.

>  <Pathways>
DNA Damage/DNA Repair

>  <Target>
DNA/RNA Synthesis inhibitor

>  <Receptor>
DNA/RNA synthesis

>  <Reference>
1. Kirsch LE, et al. J Pharm Sci, 1984, 73(7), 896-902.

$$$$
T1631
  Mrv1561503291623562D          

 15 16  0  0  1  0            999 V2000
    0.6773   -0.9323    0.0000 C   0  0  2  0  0  0  0  0  0  0  0  0
    0.6773   -0.1073    0.0000 N   0  0  0  0  0  0  0  0  0  0  0  0
    1.4620    0.1477    0.0000 C   0  0  2  0  0  0  0  0  0  0  0  0
    1.9469   -0.5198    0.0000 C   0  0  0  0  0  0  0  0  0  0  0  0
    2.5600    0.0323    0.0000 C   0  0  0  0  0  0  0  0  0  0  0  0
    2.5600   -1.0718    0.0000 C   0  0  0  0  0  0  0  0  0  0  0  0
    1.4620   -1.1872    0.0000 S   0  0  0  0  0  0  0  0  0  0  0  0
    2.0692   -1.7456    0.0000 O   0  0  0  0  0  0  0  0  0  0  0  0
    1.2989   -1.9959    0.0000 O   0  0  0  0  0  0  0  0  0  0  0  0
    1.7169    0.9323    0.0000 C   0  0  0  0  0  0  0  0  0  0  0  0
    2.5239    1.1038    0.0000 O   0  0  0  0  0  0  0  0  0  0  0  0
    1.1649    1.5454    0.0000 O   0  0  0  0  0  0  0  0  0  0  0  0
   -0.1477   -0.1073    0.0000 C   0  0  0  0  0  0  0  0  0  0  0  0
   -0.7310    0.4761    0.0000 O   0  0  0  0  0  0  0  0  0  0  0  0
   -0.1477   -0.9323    0.0000 C   0  0  0  0  0  0  0  0  0  0  0  0
  1  2  1  6  0  0  0
  2  3  1  0  0  0  0
  3  4  1  0  0  0  0
  4  5  1  0  0  0  0
  4  6  1  0  0  0  0
  4  7  1  0  0  0  0
  1  7  1  0  0  0  0
  7  8  2  0  0  0  0
  7  9  2  0  0  0  0
  3 10  1  1  0  0  0
 10 11  1  0  0  0  0
 10 12  2  0  0  0  0
  2 13  1  0  0  0  0
 13 14  2  0  0  0  0
 13 15  1  0  0  0  0
  1 15  1  0  0  0  0
M  END
>  <Name>
Sulbactam

>  <CAS>
68373-14-8

>  <Formula>
C8H11NO5S

>  <MolWt>
233.24 

>  <Bioactivity>
A beta-lactamase inhibitor with very weak antibacterial action. The compound prevents antibiotic destruction of beta-lactam antibiotics by inhibiting beta-lactamases, thus extending their spectrum activity. Combinations of sulbactam with beta-lactam antibiotics have been used successfully for the therapy of infections caused by organisms resistant to the antibiotic alone. 

>  <Pathways>
Microbiology & Virology

>  <Target>
Antibiotic

>  <Receptor>
?-Lactamase

>  <Reference>
1. Singh GS, et al. Mini Rev Med Chem. 2004 Jan;4(1):93-109.

$$$$
59122-46-2
  Mrv1561503291623562D          

 27 27  0  0  1  0            999 V2000
   -3.6037    0.1862    0.0000 C   0  0  2  0  0  0  0  0  0  0  0  0
   -2.8501   -0.1494    0.0000 C   0  0  2  0  0  0  0  0  0  0  0  0
   -2.9363   -0.9698    0.0000 C   0  0  0  0  0  0  0  0  0  0  0  0
   -2.3232   -1.5219    0.0000 O   0  0  0  0  0  0  0  0  0  0  0  0
   -3.7433   -1.1414    0.0000 C   0  0  0  0  0  0  0  0  0  0  0  0
   -4.1558   -0.4269    0.0000 C   0  0  1  0  0  0  0  0  0  0  0  0
   -4.9762   -0.3407    0.0000 O   0  0  0  0  0  0  0  0  0  0  0  0
   -2.1356    0.2631    0.0000 C   0  0  0  0  0  0  0  0  0  0  0  0
   -1.4211   -0.1494    0.0000 C   0  0  0  0  0  0  0  0  0  0  0  0
   -0.7066    0.2631    0.0000 C   0  0  0  0  0  0  0  0  0  0  0  0
    0.0078   -0.1494    0.0000 C   0  0  0  0  0  0  0  0  0  0  0  0
    0.7223    0.2631    0.0000 C   0  0  0  0  0  0  0  0  0  0  0  0
    1.4368   -0.1494    0.0000 C   0  0  0  0  0  0  0  0  0  0  0  0
    2.1512    0.2631    0.0000 C   0  0  0  0  0  0  0  0  0  0  0  0
    2.8657   -0.1494    0.0000 O   0  0  0  0  0  0  0  0  0  0  0  0
    3.5802    0.2631    0.0000 C   0  0  0  0  0  0  0  0  0  0  0  0
    2.1512    1.0881    0.0000 O   0  0  0  0  0  0  0  0  0  0  0  0
   -3.7753    0.9932    0.0000 C   0  0  0  0  0  0  0  0  0  0  0  0
   -4.5599    1.2481    0.0000 C   0  0  0  0  0  0  0  0  0  0  0  0
   -4.7314    2.0551    0.0000 C   0  0  0  0  0  0  0  0  0  0  0  0
   -5.5160    2.3100    0.0000 C   0  0  0  0  0  0  0  0  0  0  0  0
   -6.3007    2.5650    0.0000 C   0  0  0  0  0  0  0  0  0  0  0  0
   -6.9137    2.0129    0.0000 C   0  0  0  0  0  0  0  0  0  0  0  0
   -7.6984    2.2679    0.0000 C   0  0  0  0  0  0  0  0  0  0  0  0
   -8.3115    1.7158    0.0000 C   0  0  0  0  0  0  0  0  0  0  0  0
   -5.2611    3.0946    0.0000 C   0  0  0  0  0  0  0  0  0  0  0  0
   -5.7710    1.5254    0.0000 O   0  0  0  0  0  0  0  0  0  0  0  0
  1  2  1  0  0  0  0
  2  3  1  0  0  0  0
  3  4  2  0  0  0  0
  3  5  1  0  0  0  0
  5  6  1  0  0  0  0
  1  6  1  0  0  0  0
  6  7  1  1  0  0  0
  2  8  1  1  0  0  0
  8  9  1  0  0  0  0
  9 10  1  0  0  0  0
 10 11  1  0  0  0  0
 11 12  1  0  0  0  0
 12 13  1  0  0  0  0
 13 14  1  0  0  0  0
 14 15  1  0  0  0  0
 15 16  1  0  0  0  0
 14 17  2  0  0  0  0
  1 18  1  6  0  0  0
 18 19  2  0  0  0  0
 19 20  1  0  0  0  0
 20 21  1  0  0  0  0
 21 22  1  0  0  0  0
 22 23  1  0  0  0  0
 23 24  1  0  0  0  0
 24 25  1  0  0  0  0
 21 26  1  0  0  0  0
 21 27  1  0  0  0  0
M  END
>  <Name>
Misoprostol

>  <CAS>
59122-46-2

>  <Formula>
C22H38O5

>  <MolWt>
382.53 

>  <Bioactivity>
Misoprostol(SC29333) is a synthetic prostaglandin E1 (PGE1) analog that is used to prevent gastric ulcers, to treat missed miscarriage, to induce labor, and to induce abortion.

>  <Pathways>
Endocrinology/ Hormones

>  <Target>
Estrogen/Progestogen Receptor agonist

>  <Receptor>
Estrogen/progestogen Receptor

>  <Reference>
1. Li J, et al. Neurosci Lett, 2008. 438(2): p. 210-5.

$$$$
T2396
  Mrv1561503291623562D          

 29 32  0  0  1  0            999 V2000
    3.7054   -0.2006    0.0000 C   0  0  1  0  0  0  0  0  0  0  0  0
    2.8985   -0.3721    0.0000 C   0  0  0  0  0  0  0  0  0  0  0  0
    2.3464    0.2410    0.0000 C   0  0  0  0  0  0  0  0  0  0  0  0
    2.6014    1.0256    0.0000 C   0  0  0  0  0  0  0  0  0  0  0  0
    1.9339    1.5105    0.0000 N   0  0  0  0  0  0  0  0  0  0  0  0
    1.9339    2.3355    0.0000 C   0  0  0  0  0  0  0  0  0  0  0  0
    1.2195    2.7480    0.0000 C   0  0  0  0  0  0  0  0  0  0  0  0
    1.2195    3.5730    0.0000 C   0  0  0  0  0  0  0  0  0  0  0  0
    0.5050    3.9855    0.0000 O   0  0  0  0  0  0  0  0  0  0  0  0
    1.9339    3.9855    0.0000 O   0  0  0  0  0  0  0  0  0  0  0  0
    1.2665    1.0256    0.0000 C   0  0  0  0  0  0  0  0  0  0  0  0
    1.5214    0.2410    0.0000 C   0  0  0  0  0  0  0  0  0  0  0  0
    0.9694   -0.3721    0.0000 C   0  0  0  0  0  0  0  0  0  0  0  0
    0.1624   -0.2006    0.0000 C   0  0  0  0  0  0  0  0  0  0  0  0
   -0.0925    0.5840    0.0000 C   0  0  0  0  0  0  0  0  0  0  0  0
    0.4595    1.1971    0.0000 C   0  0  0  0  0  0  0  0  0  0  0  0
    3.4084    1.1971    0.0000 C   0  0  0  0  0  0  0  0  0  0  0  0
    3.9604    0.5840    0.0000 C   0  0  0  0  0  0  0  0  0  0  0  0
    4.2575   -0.8137    0.0000 N   0  0  0  0  0  0  0  0  0  0  0  0
    4.0025   -1.5983    0.0000 S   0  0  0  0  0  0  0  0  0  0  0  0
    3.7476   -2.3829    0.0000 C   0  0  0  0  0  0  0  0  0  0  0  0
    4.2996   -2.9960    0.0000 C   0  0  0  0  0  0  0  0  0  0  0  0
    4.0447   -3.7806    0.0000 C   0  0  0  0  0  0  0  0  0  0  0  0
    3.2377   -3.9522    0.0000 C   0  0  0  0  0  0  0  0  0  0  0  0
    2.6857   -3.3391    0.0000 C   0  0  0  0  0  0  0  0  0  0  0  0
    2.9406   -2.5545    0.0000 C   0  0  0  0  0  0  0  0  0  0  0  0
    2.9828   -4.7368    0.0000 F   0  0  0  0  0  0  0  0  0  0  0  0
    3.2179   -1.3434    0.0000 O   0  0  0  0  0  0  0  0  0  0  0  0
    4.7872   -1.8532    0.0000 O   0  0  0  0  0  0  0  0  0  0  0  0
  1  2  1  0  0  0  0
  2  3  1  0  0  0  0
  3  4  2  0  0  0  0
  4  5  1  0  0  0  0
  5  6  1  0  0  0  0
  6  7  1  0  0  0  0
  7  8  1  0  0  0  0
  8  9  1  0  0  0  0
  8 10  2  0  0  0  0
  5 11  1  0  0  0  0
 11 12  2  0  0  0  0
  3 12  1  0  0  0  0
 12 13  1  0  0  0  0
 13 14  2  0  0  0  0
 14 15  1  0  0  0  0
 15 16  2  0  0  0  0
 11 16  1  0  0  0  0
  4 17  1  0  0  0  0
 17 18  1  0  0  0  0
  1 18  1  0  0  0  0
  1 19  1  1  0  0  0
 19 20  1  0  0  0  0
 20 21  1  0  0  0  0
 21 22  2  0  0  0  0
 22 23  1  0  0  0  0
 23 24  2  0  0  0  0
 24 25  1  0  0  0  0
 25 26  2  0  0  0  0
 21 26  1  0  0  0  0
 24 27  1  0  0  0  0
 20 28  2  0  0  0  0
 20 29  2  0  0  0  0
M  END
>  <Name>
Ramatroban

>  <CAS>
116649-85-5

>  <Formula>
C21H21FN2O4S

>  <MolWt>
416.47 

>  <Bioactivity>
Ramatroban (BAY u3405) is a thromboxane A(2) (TxA(2)) antagonist marketed for allergic rhinitis.

>  <Pathways>
Angiogenesis

>  <Target>
TXA2 receptor antagonist

>  <Receptor>
TXA2 receptor; CRTh2

>  <Reference>
1. Sugimoto H., et al. J Pharmacol Exp Ther, 2003. 305(1): p. 347-52.

$$$$
144675-97-8
  Mrv1561503291623562D          

 40 40  0  0  0  0            999 V2000
    1.6671    0.4125    0.0000 C   0  0  0  0  0  0  0  0  0  0  0  0
    1.6671   -0.4125    0.0000 C   0  0  0  0  0  0  0  0  0  0  0  0
    0.9526   -0.8250    0.0000 C   0  0  0  0  0  0  0  0  0  0  0  0
    0.2382   -0.4125    0.0000 C   0  0  0  0  0  0  0  0  0  0  0  0
    0.2382    0.4125    0.0000 C   0  0  0  0  0  0  0  0  0  0  0  0
    0.9526    0.8250    0.0000 C   0  0  0  0  0  0  0  0  0  0  0  0
    0.9526    1.6500    0.0000 N   0  0  0  0  0  0  0  0  0  0  0  0
    0.2382    2.0625    0.0000 C   0  0  0  0  0  0  0  0  0  0  0  0
    0.2382    2.8875    0.0000 C   0  0  0  0  0  0  0  0  0  0  0  0
   -0.4763    3.3000    0.0000 N   0  0  0  0  0  0  0  0  0  0  0  0
   -0.4763    0.8250    0.0000 C   0  0  0  0  0  0  0  0  0  0  0  0
   -0.4763    1.6500    0.0000 O   0  0  0  0  0  0  0  0  0  0  0  0
   -1.1908    0.4125    0.0000 C   0  0  0  0  0  0  0  0  0  0  0  0
   -1.1908   -0.4125    0.0000 C   0  0  0  0  0  0  0  0  0  0  0  0
   -0.4763   -0.8250    0.0000 C   0  0  0  0  0  0  0  0  0  0  0  0
   -0.4763   -1.6500    0.0000 O   0  0  0  0  0  0  0  0  0  0  0  0
   -1.9053   -0.8250    0.0000 C   0  0  0  0  0  0  0  0  0  0  0  0
   -2.6197   -0.4125    0.0000 C   0  0  0  0  0  0  0  0  0  0  0  0
   -2.6197    0.4125    0.0000 N   0  0  0  0  0  0  0  0  0  0  0  0
   -1.9053    0.8250    0.0000 C   0  0  0  0  0  0  0  0  0  0  0  0
    0.9526   -1.6500    0.0000 N   0  0  0  0  0  0  0  0  0  0  0  0
    1.6671   -2.0625    0.0000 C   0  0  0  0  0  0  0  0  0  0  0  0
    1.6671   -2.8875    0.0000 C   0  0  0  0  0  0  0  0  0  0  0  0
    2.3816   -3.3000    0.0000 N   0  0  0  0  0  0  0  0  0  0  0  0
    7.5673    0.7145    0.0000 O   0  0  0  0  0  0  0  0  0  0  0  0
    6.7423    0.7145    0.0000 C   0  0  0  0  0  0  0  0  0  0  0  0
    6.3298    1.4289    0.0000 O   0  0  0  0  0  0  0  0  0  0  0  0
    6.3298   -0.0000    0.0000 C   0  0  0  0  0  0  0  0  0  0  0  0
    5.5048   -0.0000    0.0000 C   0  0  0  0  0  0  0  0  0  0  0  0
    5.0923   -0.7145    0.0000 C   0  0  0  0  0  0  0  0  0  0  0  0
    5.5048   -1.4289    0.0000 O   0  0  0  0  0  0  0  0  0  0  0  0
    4.2673   -0.7145    0.0000 O   0  0  0  0  0  0  0  0  0  0  0  0
    1.6500   -5.6645    0.0000 O   0  0  0  0  0  0  0  0  0  0  0  0
    0.8250   -5.6645    0.0000 C   0  0  0  0  0  0  0  0  0  0  0  0
    0.4125   -4.9500    0.0000 O   0  0  0  0  0  0  0  0  0  0  0  0
    0.4125   -6.3789    0.0000 C   0  0  0  0  0  0  0  0  0  0  0  0
   -0.4125   -6.3789    0.0000 C   0  0  0  0  0  0  0  0  0  0  0  0
   -0.8250   -7.0934    0.0000 C   0  0  0  0  0  0  0  0  0  0  0  0
   -0.4125   -7.8079    0.0000 O   0  0  0  0  0  0  0  0  0  0  0  0
   -1.6500   -7.0934    0.0000 O   0  0  0  0  0  0  0  0  0  0  0  0
  1  2  2  0  0  0  0
  2  3  1  0  0  0  0
  3  4  2  0  0  0  0
  4  5  1  0  0  0  0
  5  6  2  0  0  0  0
  1  6  1  0  0  0  0
  6  7  1  0  0  0  0
  7  8  1  0  0  0  0
  8  9  1  0  0  0  0
  9 10  1  0  0  0  0
  5 11  1  0  0  0  0
 11 12  2  0  0  0  0
 11 13  1  0  0  0  0
 13 14  2  0  0  0  0
 14 15  1  0  0  0  0
  4 15  1  0  0  0  0
 15 16  2  0  0  0  0
 14 17  1  0  0  0  0
 17 18  2  0  0  0  0
 18 19  1  0  0  0  0
 19 20  2  0  0  0  0
 13 20  1  0  0  0  0
  3 21  1  0  0  0  0
 21 22  1  0  0  0  0
 22 23  1  0  0  0  0
 23 24  1  0  0  0  0
 25 26  2  0  0  0  0
 26 27  1  0  0  0  0
 26 28  1  0  0  0  0
 28 29  2  0  0  0  0
 29 30  1  0  0  0  0
 30 31  2  0  0  0  0
 30 32  1  0  0  0  0
 33 34  2  0  0  0  0
 34 35  1  0  0  0  0
 34 36  1  0  0  0  0
 36 37  2  0  0  0  0
 37 38  1  0  0  0  0
 38 39  2  0  0  0  0
 38 40  1  0  0  0  0
M  END
>  <Name>
Pixantrone dimaleate

>  <CAS>
144675-97-8

>  <Formula>
C25H27N5O10

>  <MolWt>
557.21 

>  <Bioactivity>
Pixantrone dimaleate (BBR 2778 dimaleate) is an experimental antineoplastic drug.

>  <Pathways>
Others

>  <Target>
Others

>  <Receptor>
Others

>  <Reference>
1. Cavalletti E., et al. Invest New Drugs, 2007. 25(3): p. 187-95.

$$$$
T2389
  Mrv1561503291623562D          

 28 30  0  0  0  0            999 V2000
    1.4289   -1.6500    0.0000 C   0  0  0  0  0  0  0  0  0  0  0  0
    1.4289   -2.4750    0.0000 C   0  0  0  0  0  0  0  0  0  0  0  0
    2.1434   -2.8875    0.0000 O   0  0  0  0  0  0  0  0  0  0  0  0
    2.1434   -3.7125    0.0000 C   0  0  0  0  0  0  0  0  0  0  0  0
    2.8579   -4.1250    0.0000 C   0  0  0  0  0  0  0  0  0  0  0  0
    2.8579   -4.9500    0.0000 C   0  0  0  0  0  0  0  0  0  0  0  0
    2.1434   -5.3625    0.0000 C   0  0  0  0  0  0  0  0  0  0  0  0
    1.4289   -4.9500    0.0000 C   0  0  0  0  0  0  0  0  0  0  0  0
    1.4289   -4.1250    0.0000 C   0  0  0  0  0  0  0  0  0  0  0  0
    2.1434   -6.1875    0.0000 C   0  0  0  0  0  0  0  0  0  0  0  0
    2.8579   -6.6000    0.0000 C   0  0  0  0  0  0  0  0  0  0  0  0
    3.5724   -6.1875    0.0000 C   0  0  0  0  0  0  0  0  0  0  0  0
    4.2868   -6.6000    0.0000 C   0  0  0  0  0  0  0  0  0  0  0  0
    4.2868   -7.4250    0.0000 C   0  0  0  0  0  0  0  0  0  0  0  0
    3.5724   -7.8375    0.0000 C   0  0  0  0  0  0  0  0  0  0  0  0
    2.8579   -7.4250    0.0000 C   0  0  0  0  0  0  0  0  0  0  0  0
    3.5724   -8.6625    0.0000 C   0  0  0  0  0  0  0  0  0  0  0  0
    4.2868   -9.0750    0.0000 C   0  0  0  0  0  0  0  0  0  0  0  0
    4.2868   -9.9000    0.0000 C   0  0  0  0  0  0  0  0  0  0  0  0
    3.5724  -10.3125    0.0000 C   0  0  0  0  0  0  0  0  0  0  0  0
    2.8579   -9.9000    0.0000 C   0  0  0  0  0  0  0  0  0  0  0  0
    2.8579   -9.0750    0.0000 O   0  0  0  0  0  0  0  0  0  0  0  0
    2.1434  -10.3125    0.0000 C   0  0  0  0  0  0  0  0  0  0  0  0
    2.1434  -11.1375    0.0000 O   0  0  0  0  0  0  0  0  0  0  0  0
    3.5724  -11.1375    0.0000 O   0  0  0  0  0  0  0  0  0  0  0  0
    5.0013  -10.3125    0.0000 O   0  0  0  0  0  0  0  0  0  0  0  0
    5.0013   -8.6625    0.0000 O   0  0  0  0  0  0  0  0  0  0  0  0
    3.5724   -5.3625    0.0000 Cl  0  0  0  0  0  0  0  0  0  0  0  0
  1  2  1  0  0  0  0
  2  3  1  0  0  0  0
  3  4  1  0  0  0  0
  4  5  2  0  0  0  0
  5  6  1  0  0  0  0
  6  7  2  0  0  0  0
  7  8  1  0  0  0  0
  8  9  2  0  0  0  0
  4  9  1  0  0  0  0
  7 10  1  0  0  0  0
 10 11  1  0  0  0  0
 11 12  2  0  0  0  0
 12 13  1  0  0  0  0
 13 14  2  0  0  0  0
 14 15  1  0  0  0  0
 15 16  2  0  0  0  0
 11 16  1  0  0  0  0
 15 17  1  0  0  0  0
 17 18  1  0  0  0  0
 18 19  1  0  0  0  0
 19 20  1  0  0  0  0
 20 21  1  0  0  0  0
 21 22  1  0  0  0  0
 17 22  1  0  0  0  0
 21 23  1  0  0  0  0
 23 24  1  0  0  0  0
 20 25  1  0  0  0  0
 19 26  1  0  0  0  0
 18 27  1  0  0  0  0
 12 28  1  0  0  0  0
M  END
>  <Name>
Dapagliflozin

>  <CAS>
461432-26-8

>  <Formula>
C21H25ClO6

>  <MolWt>
408.87 

>  <Bioactivity>
Dapagliflozin is a potent and selective hSGLT2 inhibitor with EC50 of 1.1 nM, exhibiting 1200-fold selectivity over hSGLT1. Phase 4.

>  <Pathways>
Membrane Transporter/Ion Channel

>  <Target>
SGLT inhibitor

>  <Receptor>
SGLT2

>  <Reference>
1. Meng W, et al. J Med Chem, 2008, 51(5), 1145-1149.

$$$$
761423-87-4
  Mrv1561503291623562D          

 28 31  0  0  0  0            999 V2000
    3.3523    1.9354    0.0000 C   0  0  0  0  0  0  0  0  0  0  0  0
    3.3523    1.1104    0.0000 C   0  0  0  0  0  0  0  0  0  0  0  0
    2.6378    0.6979    0.0000 C   0  0  0  0  0  0  0  0  0  0  0  0
    1.9233    1.1104    0.0000 C   0  0  0  0  0  0  0  0  0  0  0  0
    1.9233    1.9354    0.0000 C   0  0  0  0  0  0  0  0  0  0  0  0
    2.6378    2.3479    0.0000 C   0  0  0  0  0  0  0  0  0  0  0  0
    1.1387    2.1904    0.0000 C   0  0  0  0  0  0  0  0  0  0  0  0
    0.6538    1.5229    0.0000 C   0  0  0  0  0  0  0  0  0  0  0  0
    1.1387    0.8555    0.0000 S   0  0  0  0  0  0  0  0  0  0  0  0
   -0.1712    1.5229    0.0000 C   0  0  0  0  0  0  0  0  0  0  0  0
   -0.5837    0.8085    0.0000 C   0  0  0  0  0  0  0  0  0  0  0  0
   -0.1712    0.0940    0.0000 C   0  0  0  0  0  0  0  0  0  0  0  0
   -0.5837   -0.6205    0.0000 C   0  0  0  0  0  0  0  0  0  0  0  0
   -1.4087   -0.6205    0.0000 C   0  0  0  0  0  0  0  0  0  0  0  0
   -1.8212    0.0940    0.0000 C   0  0  0  0  0  0  0  0  0  0  0  0
   -1.4087    0.8085    0.0000 C   0  0  0  0  0  0  0  0  0  0  0  0
   -2.6462    0.0940    0.0000 C   0  0  0  0  0  0  0  0  0  0  0  0
   -3.0587   -0.6205    0.0000 C   0  0  0  0  0  0  0  0  0  0  0  0
   -3.8837   -0.6205    0.0000 C   0  0  0  0  0  0  0  0  0  0  0  0
   -4.2962    0.0940    0.0000 C   0  0  0  0  0  0  0  0  0  0  0  0
   -3.8837    0.8085    0.0000 C   0  0  0  0  0  0  0  0  0  0  0  0
   -3.0587    0.8085    0.0000 O   0  0  0  0  0  0  0  0  0  0  0  0
   -4.2962    1.5229    0.0000 C   0  0  0  0  0  0  0  0  0  0  0  0
   -5.1212    1.5229    0.0000 O   0  0  0  0  0  0  0  0  0  0  0  0
   -5.1212    0.0940    0.0000 O   0  0  0  0  0  0  0  0  0  0  0  0
   -4.2962   -1.3349    0.0000 O   0  0  0  0  0  0  0  0  0  0  0  0
   -2.6462   -1.3349    0.0000 O   0  0  0  0  0  0  0  0  0  0  0  0
    0.6538    0.0940    0.0000 F   0  0  0  0  0  0  0  0  0  0  0  0
  1  2  2  0  0  0  0
  2  3  1  0  0  0  0
  3  4  2  0  0  0  0
  4  5  1  0  0  0  0
  5  6  2  0  0  0  0
  1  6  1  0  0  0  0
  5  7  1  0  0  0  0
  7  8  2  0  0  0  0
  8  9  1  0  0  0  0
  4  9  1  0  0  0  0
  8 10  1  0  0  0  0
 10 11  1  0  0  0  0
 11 12  2  0  0  0  0
 12 13  1  0  0  0  0
 13 14  2  0  0  0  0
 14 15  1  0  0  0  0
 15 16  2  0  0  0  0
 11 16  1  0  0  0  0
 15 17  1  0  0  0  0
 17 18  1  0  0  0  0
 18 19  1  0  0  0  0
 19 20  1  0  0  0  0
 20 21  1  0  0  0  0
 21 22  1  0  0  0  0
 17 22  1  0  0  0  0
 21 23  1  0  0  0  0
 23 24  1  0  0  0  0
 20 25  1  0  0  0  0
 19 26  1  0  0  0  0
 18 27  1  0  0  0  0
 12 28  1  0  0  0  0
M  END
>  <Name>
Ipragliflozin

>  <CAS>
761423-87-4

>  <Formula>
C21H21FO5S

>  <MolWt>
404.45 

>  <Bioactivity>
Ipragliflozin (ASP1941) is a highly potent and selective SGLT2 inhibitor with IC50 of 2.8 nM; little and NO potency for SGLT1/3/4/5/6.

>  <Pathways>
Membrane Transporter/Ion Channel

>  <Target>
SGLT inhibitor

>  <Receptor>
SGLT2

>  <Reference>
1. Imamura M, et al. Bioorg Med Chem. 2012 May 15;20(10):3263-79.

$$$$
T1603
  Mrv1561503291623562D          

 31 33  0  0  0  0            999 V2000
   -0.7145   -1.2375    0.0000 C   0  0  0  0  0  0  0  0  0  0  0  0
   -0.0000   -1.6500    0.0000 C   0  0  0  0  0  0  0  0  0  0  0  0
   -0.0000   -2.4750    0.0000 C   0  0  0  0  0  0  0  0  0  0  0  0
   -0.7145   -2.8875    0.0000 C   0  0  0  0  0  0  0  0  0  0  0  0
   -1.4289   -2.4750    0.0000 C   0  0  0  0  0  0  0  0  0  0  0  0
   -1.4289   -1.6500    0.0000 C   0  0  0  0  0  0  0  0  0  0  0  0
   -2.1434   -1.2375    0.0000 S   0  0  0  0  0  0  0  0  0  0  0  0
   -2.8579   -0.8250    0.0000 N   0  0  0  0  0  0  0  0  0  0  0  0
   -3.5724   -1.2375    0.0000 C   0  0  0  0  0  0  0  0  0  0  0  0
   -4.2868   -0.8250    0.0000 N   0  0  0  0  0  0  0  0  0  0  0  0
   -5.0013   -1.2375    0.0000 C   0  0  0  0  0  0  0  0  0  0  0  0
   -5.0013   -2.0625    0.0000 C   0  0  0  0  0  0  0  0  0  0  0  0
   -5.7158   -2.4750    0.0000 C   0  0  0  0  0  0  0  0  0  0  0  0
   -6.4302   -2.0625    0.0000 C   0  0  0  0  0  0  0  0  0  0  0  0
   -6.4302   -1.2375    0.0000 C   0  0  0  0  0  0  0  0  0  0  0  0
   -5.7158   -0.8250    0.0000 C   0  0  0  0  0  0  0  0  0  0  0  0
   -3.5724   -2.0625    0.0000 O   0  0  0  0  0  0  0  0  0  0  0  0
   -2.5559   -1.9520    0.0000 O   0  0  0  0  0  0  0  0  0  0  0  0
   -1.7309   -0.5230    0.0000 O   0  0  0  0  0  0  0  0  0  0  0  0
    0.7145   -2.8875    0.0000 C   0  0  0  0  0  0  0  0  0  0  0  0
    1.4289   -2.4750    0.0000 C   0  0  0  0  0  0  0  0  0  0  0  0
    2.1434   -2.8875    0.0000 N   0  0  0  0  0  0  0  0  0  0  0  0
    2.8579   -2.4750    0.0000 C   0  0  0  0  0  0  0  0  0  0  0  0
    3.5724   -2.8875    0.0000 C   0  0  0  0  0  0  0  0  0  0  0  0
    4.2868   -2.4750    0.0000 N   0  0  0  0  0  0  0  0  0  0  0  0
    5.0013   -2.8875    0.0000 C   0  0  0  0  0  0  0  0  0  0  0  0
    5.0013   -3.7125    0.0000 C   0  0  0  0  0  0  0  0  0  0  0  0
    4.2868   -4.1250    0.0000 N   0  0  0  0  0  0  0  0  0  0  0  0
    3.5724   -3.7125    0.0000 C   0  0  0  0  0  0  0  0  0  0  0  0
    5.7158   -4.1250    0.0000 C   0  0  0  0  0  0  0  0  0  0  0  0
    2.8579   -1.6500    0.0000 O   0  0  0  0  0  0  0  0  0  0  0  0
  1  2  2  0  0  0  0
  2  3  1  0  0  0  0
  3  4  2  0  0  0  0
  4  5  1  0  0  0  0
  5  6  2  0  0  0  0
  1  6  1  0  0  0  0
  6  7  1  0  0  0  0
  7  8  1  0  0  0  0
  8  9  1  0  0  0  0
  9 10  1  0  0  0  0
 10 11  1  0  0  0  0
 11 12  1  0  0  0  0
 12 13  1  0  0  0  0
 13 14  1  0  0  0  0
 14 15  1  0  0  0  0
 15 16  1  0  0  0  0
 11 16  1  0  0  0  0
  9 17  2  0  0  0  0
  7 18  2  0  0  0  0
  7 19  2  0  0  0  0
  3 20  1  0  0  0  0
 20 21  1  0  0  0  0
 21 22  1  0  0  0  0
 22 23  1  0  0  0  0
 23 24  1  0  0  0  0
 24 25  2  0  0  0  0
 25 26  1  0  0  0  0
 26 27  2  0  0  0  0
 27 28  1  0  0  0  0
 28 29  2  0  0  0  0
 24 29  1  0  0  0  0
 27 30  1  0  0  0  0
 23 31  2  0  0  0  0
M  END
>  <Name>
Glipizide

>  <CAS>
29094-61-9

>  <Formula>
C21H27N5O4S

>  <MolWt>
445.54 

>  <Bioactivity>
Glipizide is used to treat high blood sugar levels caused by a type of diabetes mellitus.

>  <Pathways>
Membrane Transporter/Ion Channel; Metabolism

>  <Target>
PPAR agonist; ABC inhibitor

>  <Receptor>
PPAR?;ABCC

>  <Reference>
1. Gribble FM, Ashcroft FM. Metabolism. 2000 Oct;49(10 Suppl 2):3-6. 

$$$$
T1674
  Mrv1561503291623562D          

 23 24  0  0  1  0            999 V2000
    2.1434   -2.0625    0.0000 C   0  0  2  0  0  0  0  0  0  0  0  0
    1.4289   -2.4750    0.0000 N   0  0  0  0  0  0  0  0  0  0  0  0
    1.4289   -3.3000    0.0000 C   0  0  0  0  0  0  0  0  0  0  0  0
    2.1434   -3.7125    0.0000 O   0  0  0  0  0  0  0  0  0  0  0  0
    0.7145   -3.7125    0.0000 C   0  0  2  0  0  0  0  0  0  0  0  0
   -0.0000   -3.3000    0.0000 C   0  0  0  0  0  0  0  0  0  0  0  0
   -0.7145   -3.7125    0.0000 C   0  0  2  0  0  0  0  0  0  0  0  0
   -0.7145   -4.5375    0.0000 C   0  0  0  0  0  0  0  0  0  0  0  0
    0.0000   -4.9500    0.0000 C   0  0  0  0  0  0  0  0  0  0  0  0
    0.7145   -4.5375    0.0000 C   0  0  0  0  0  0  0  0  0  0  0  0
   -1.4289   -3.3000    0.0000 C   0  0  0  0  0  0  0  0  0  0  0  0
   -2.1434   -3.7125    0.0000 C   0  0  0  0  0  0  0  0  0  0  0  0
   -1.4289   -2.4750    0.0000 C   0  0  0  0  0  0  0  0  0  0  0  0
    2.1434   -1.2375    0.0000 C   0  0  0  0  0  0  0  0  0  0  0  0
    2.8579   -0.8250    0.0000 C   0  0  0  0  0  0  0  0  0  0  0  0
    2.8579   -0.0000    0.0000 C   0  0  0  0  0  0  0  0  0  0  0  0
    3.5724    0.4125    0.0000 C   0  0  0  0  0  0  0  0  0  0  0  0
    4.2868   -0.0000    0.0000 C   0  0  0  0  0  0  0  0  0  0  0  0
    4.2868   -0.8250    0.0000 C   0  0  0  0  0  0  0  0  0  0  0  0
    3.5724   -1.2375    0.0000 C   0  0  0  0  0  0  0  0  0  0  0  0
    2.8579   -2.4750    0.0000 C   0  0  0  0  0  0  0  0  0  0  0  0
    3.5724   -2.0625    0.0000 O   0  0  0  0  0  0  0  0  0  0  0  0
    2.8579   -3.3000    0.0000 O   0  0  0  0  0  0  0  0  0  0  0  0
  1  2  1  6  0  0  0
  2  3  1  0  0  0  0
  3  4  2  0  0  0  0
  5  3  1  1  0  0  0
  5  6  1  0  0  0  0
  6  7  1  0  0  0  0
  7  8  1  0  0  0  0
  8  9  1  0  0  0  0
  9 10  1  0  0  0  0
  5 10  1  0  0  0  0
  7 11  1  6  0  0  0
 11 12  1  0  0  0  0
 11 13  1  0  0  0  0
  1 14  1  0  0  0  0
 14 15  1  0  0  0  0
 15 16  2  0  0  0  0
 16 17  1  0  0  0  0
 17 18  2  0  0  0  0
 18 19  1  0  0  0  0
 19 20  2  0  0  0  0
 15 20  1  0  0  0  0
  1 21  1  0  0  0  0
 21 22  2  0  0  0  0
 21 23  1  0  0  0  0
M  END
>  <Name>
Nateglinide

>  <CAS>
105816-04-4

>  <Formula>
C19H27NO3

>  <MolWt>
317.42 

>  <Bioactivity>
Nateglinide is an oral antihyperglycemic agent used for the treatment of non-insulin-dependent diabetes mellitus (NIDDM). It belongs to the meglitinide class of short-acting insulin secretagogues, which act by binding to ? cells of the pancreas to stimulate insulin release. Nateglinide is an amino acid derivative that induces an early insulin response to meals decreasing postprandial blood glucose levels. It should only be taken with meals and meal-time doses should be skipped with any skipped meal. Approximately one month of therapy is required before a decrease in fasting blood glucose is seen. Meglitnides may have a neutral effect on weight or cause a slight increase in weight. The average weight gain caused by meglitinides appears to be lower than that caused by sulfonylureas and insulin and appears to occur only in those naïve to oral antidiabetic agents. Due to their mechanism of action, meglitinides may cause hypoglycemia although the risk is thought to be lower than that of sulfonylureas since their action is dependent on the presence of glucose. In addition to reducing postprandial and fasting blood glucose, meglitnides have been shown to decrease glycosylated hemoglobin (HbA1c) levels, which are reflective of the last 8-10 weeks of glucose control. Meglitinides appear to be more effective at lowering postprandial blood glucose than metformin, sulfonylureas and thiazolidinediones. Nateglinide is extensively metabolized in the liver and excreted in urine (83%) and feces (10%). The major metabolites possess less activity than the parent compound. One minor metabolite, the isoprene, has the same potency as its parent compound.


>  <Pathways>
Membrane Transporter/Ion Channel; Metabolism

>  <Target>
Potassium Channel inhibitor;PPAR agonist

>  <Receptor>
Potassium Channel ;PPAR?

>  <Reference>
1. Hu S, et al. J Pharmacol Exp Ther. 2000 May;293(2):444-52. 

$$$$
178307-42-1
  Mrv1561503291623562D          

 29 30  0  0  0  0            999 V2000
    0.4125    0.0000    0.0000 H   0  3  0  0  0  0  0  0  0  0  0  0
    3.0127   -0.6111    0.0000 C   0  0  0  0  0  0  0  0  0  0  0  0
    2.2982   -1.0236    0.0000 C   0  0  0  0  0  0  0  0  0  0  0  0
    2.2982   -1.8486    0.0000 C   0  0  0  0  0  0  0  0  0  0  0  0
    3.0127   -2.2611    0.0000 C   0  0  0  0  0  0  0  0  0  0  0  0
    3.7272   -1.8486    0.0000 C   0  0  0  0  0  0  0  0  0  0  0  0
    3.7272   -1.0236    0.0000 C   0  0  0  0  0  0  0  0  0  0  0  0
    4.4416   -0.6111    0.0000 C   0  0  0  0  0  0  0  0  0  0  0  0
    5.1561   -1.0236    0.0000 N   0  0  0  0  0  0  0  0  0  0  0  0
    5.8706   -0.6111    0.0000 C   0  0  0  0  0  0  0  0  0  0  0  0
    5.8706    0.2139    0.0000 N   0  0  0  0  0  0  0  0  0  0  0  0
    6.5850    0.6264    0.0000 C   0  0  0  0  0  0  0  0  0  0  0  0
    7.2995    0.2139    0.0000 N   0  0  0  0  0  0  0  0  0  0  0  0
    7.2995   -0.6111    0.0000 C   0  0  0  0  0  0  0  0  0  0  0  0
    6.5850   -1.0236    0.0000 C   0  0  0  0  0  0  0  0  0  0  0  0
    6.5850   -1.8486    0.0000 C   0  0  0  0  0  0  0  0  0  0  0  0
    8.0140   -1.0236    0.0000 C   0  0  0  0  0  0  0  0  0  0  0  0
    6.5850    1.4514    0.0000 N   0  0  0  0  0  0  0  0  0  0  0  0
    7.2995    1.8639    0.0000 C   0  0  0  0  0  0  0  0  0  0  0  0
    7.2995    2.6889    0.0000 C   0  0  0  0  0  0  0  0  0  0  0  0
    8.0140    3.1014    0.0000 C   0  0  0  0  0  0  0  0  0  0  0  0
    8.7285    2.6889    0.0000 C   0  0  0  0  0  0  0  0  0  0  0  0
    9.4429    3.1014    0.0000 F   0  0  0  0  0  0  0  0  0  0  0  0
    8.7285    1.8639    0.0000 C   0  0  0  0  0  0  0  0  0  0  0  0
    8.0140    1.4514    0.0000 C   0  0  0  0  0  0  0  0  0  0  0  0
    5.1561   -1.8486    0.0000 C   0  0  0  0  0  0  0  0  0  0  0  0
    4.4416   -2.2611    0.0000 C   0  0  0  0  0  0  0  0  0  0  0  0
    4.4416    0.2139    0.0000 C   0  0  0  0  0  0  0  0  0  0  0  0
   -0.4125    0.0000    0.0000 Cl  0  5  0  0  0  0  0  0  0  0  0  0
  2  3  2  0  0  0  0
  3  4  1  0  0  0  0
  4  5  2  0  0  0  0
  5  6  1  0  0  0  0
  6  7  2  0  0  0  0
  2  7  1  0  0  0  0
  7  8  1  0  0  0  0
  8  9  1  0  0  0  0
  9 10  1  0  0  0  0
 10 11  2  0  0  0  0
 11 12  1  0  0  0  0
 12 13  2  0  0  0  0
 13 14  1  0  0  0  0
 14 15  2  0  0  0  0
 10 15  1  0  0  0  0
 15 16  1  0  0  0  0
 14 17  1  0  0  0  0
 12 18  1  0  0  0  0
 18 19  1  0  0  0  0
 19 20  2  0  0  0  0
 20 21  1  0  0  0  0
 21 22  2  0  0  0  0
 22 23  1  0  0  0  0
 22 24  1  0  0  0  0
 24 25  2  0  0  0  0
 19 25  1  0  0  0  0
  9 26  1  0  0  0  0
 26 27  1  0  0  0  0
  6 27  1  0  0  0  0
  8 28  1  0  0  0  0
M  CHG  2   1   1  29  -1
M  END
>  <Name>
Revaprazan HCl

>  <CAS>
178307-42-1

>  <Formula>
C22H24ClFN4

>  <MolWt>
398.90 

>  <Bioactivity>
Revaprazan Hydrochloride is the hydrochloride salt form of a lipophilic, weak base with potassium-competitive acid blocking (P-CAB) activity. Revaprazan concentrates highly in the gastric parietal cell canaliculus and on entering this acidic environment is instantly protonated and binds competitively and reversibly to the potassium binding site of the proton pump hydrogen-potassium adenosine triphosphatase (H+/K+ ATPase), thereby inhibiting the pump's activity and the parietal cell secretion of H+ ions into the gastric lumen, the final step in gastric acid production.

>  <Pathways>
Membrane Transporter/Ion Channel

>  <Target>
ATPase inhibitor; Proton Pump inhibitor

>  <Receptor>
H+/K+ ATPase

>  <Reference>
1. Lee JS, et al.J Clin Biochem Nutr. 2012 Sep;51(2):77-83. 

$$$$
T0985
  Mrv1561503291623562D          

 29 31  0  0  1  0            999 V2000
    1.7733    0.2488    0.0000 C   0  0  0  0  0  0  0  0  0  0  0  0
    2.5579    0.5038    0.0000 S   0  0  0  0  0  0  0  0  0  0  0  0
    3.0428   -0.1637    0.0000 C   0  0  0  0  0  0  0  0  0  0  0  0
    2.5579   -0.8311    0.0000 C   0  0  0  0  0  0  0  0  0  0  0  0
    1.7733   -0.5762    0.0000 N   0  0  0  0  0  0  0  0  0  0  0  0
    0.9483   -0.5762    0.0000 C   0  0  0  0  0  0  0  0  0  0  0  0
    0.3649   -1.1595    0.0000 O   0  0  0  0  0  0  0  0  0  0  0  0
    0.9483    0.2488    0.0000 C   0  0  0  0  0  0  0  0  0  0  0  0
    0.3649    0.8322    0.0000 N   0  0  0  0  0  0  0  0  0  0  0  0
   -0.4319    0.6187    0.0000 C   0  0  0  0  0  0  0  0  0  0  0  0
   -0.6455   -0.1782    0.0000 O   0  0  0  0  0  0  0  0  0  0  0  0
   -1.0153    1.2020    0.0000 C   0  0  0  0  0  0  0  0  0  0  0  0
   -1.8302    1.0730    0.0000 C   0  0  0  0  0  0  0  0  0  0  0  0
   -2.2047    1.8080    0.0000 O   0  0  0  0  0  0  0  0  0  0  0  0
   -1.6213    2.3914    0.0000 N   0  0  0  0  0  0  0  0  0  0  0  0
   -0.8863    2.0169    0.0000 C   0  0  0  0  0  0  0  0  0  0  0  0
   -0.1512    2.3914    0.0000 C   0  0  0  0  0  0  0  0  0  0  0  0
   -0.1080    3.2153    0.0000 C   0  0  0  0  0  0  0  0  0  0  0  0
    0.6271    3.5898    0.0000 C   0  0  0  0  0  0  0  0  0  0  0  0
    1.3190    3.1405    0.0000 C   0  0  0  0  0  0  0  0  0  0  0  0
    1.2758    2.3166    0.0000 C   0  0  0  0  0  0  0  0  0  0  0  0
    0.5407    1.9421    0.0000 C   0  0  0  0  0  0  0  0  0  0  0  0
   -2.2047    0.3379    0.0000 C   0  0  0  0  0  0  0  0  0  0  0  0
    2.8129   -1.6157    0.0000 C   0  0  0  0  0  0  0  0  0  0  0  0
    3.6198   -1.7873    0.0000 O   0  5  0  0  0  0  0  0  0  0  0  0
    2.2608   -2.2288    0.0000 O   0  0  0  0  0  0  0  0  0  0  0  0
    3.7616    0.2413    0.0000 C   0  0  0  0  0  0  0  0  0  0  0  0
    3.7616   -0.5687    0.0000 C   0  0  0  0  0  0  0  0  0  0  0  0
    4.4268   -1.9588    0.0000 Na  0  3  0  0  0  0  0  0  0  0  0  0
  1  2  1  0  0  0  0
  2  3  1  0  0  0  0
  3  4  1  0  0  0  0
  4  5  1  0  0  0  0
  1  5  1  0  0  0  0
  5  6  1  0  0  0  0
  6  7  2  0  0  0  0
  6  8  1  0  0  0  0
  1  8  1  0  0  0  0
  8  9  1  0  0  0  0
  9 10  1  0  0  0  0
 10 11  2  0  0  0  0
 10 12  1  0  0  0  0
 12 13  2  0  0  0  0
 13 14  1  0  0  0  0
 14 15  1  0  0  0  0
 15 16  2  0  0  0  0
 12 16  1  0  0  0  0
 16 17  1  0  0  0  0
 17 18  2  0  0  0  0
 18 19  1  0  0  0  0
 19 20  2  0  0  0  0
 20 21  1  0  0  0  0
 21 22  2  0  0  0  0
 17 22  1  0  0  0  0
 13 23  1  0  0  0  0
  4 24  1  0  0  0  0
 24 25  1  0  0  0  0
 24 26  2  0  0  0  0
  3 27  1  0  0  0  0
  3 28  1  0  0  0  0
M  CHG  2  25  -1  29   1
M  END
>  <Name>
Oxacillin sodium

>  <CAS>
1173-88-2

>  <Formula>
C19H18N3NaO5S

>  <MolWt>
423.43 

>  <Bioactivity>
An antibiotic similar to FLUCLOXACILLIN used in resistant staphylococci infections.

>  <Pathways>
Microbiology & Virology

>  <Target>
Antibacterial

>  <Receptor>
Others

>  <Reference>
1. Woods GL, Yam P. Antimicrob Agents Chemother. 1988 Nov;32(11):1614-8.

$$$$
163222-33-1
  Mrv1561503291623562D          

 30 33  0  0  1  0            999 V2000
    0.7145   -1.2375    0.0000 C   0  0  1  0  0  0  0  0  0  0  0  0
    1.2978   -1.8209    0.0000 N   0  0  0  0  0  0  0  0  0  0  0  0
    0.7145   -2.4042    0.0000 C   0  0  0  0  0  0  0  0  0  0  0  0
    0.7145   -3.2292    0.0000 O   0  0  0  0  0  0  0  0  0  0  0  0
    0.1311   -1.8209    0.0000 C   0  0  2  0  0  0  0  0  0  0  0  0
   -0.6939   -1.8209    0.0000 C   0  0  0  0  0  0  0  0  0  0  0  0
   -1.1064   -2.5353    0.0000 C   0  0  0  0  0  0  0  0  0  0  0  0
   -1.9314   -2.5353    0.0000 C   0  0  1  0  0  0  0  0  0  0  0  0
   -2.3439   -3.2498    0.0000 C   0  0  0  0  0  0  0  0  0  0  0  0
   -1.9314   -3.9643    0.0000 C   0  0  0  0  0  0  0  0  0  0  0  0
   -2.3439   -4.6787    0.0000 C   0  0  0  0  0  0  0  0  0  0  0  0
   -3.1689   -4.6787    0.0000 C   0  0  0  0  0  0  0  0  0  0  0  0
   -3.5814   -5.3932    0.0000 F   0  0  0  0  0  0  0  0  0  0  0  0
   -3.5814   -3.9643    0.0000 C   0  0  0  0  0  0  0  0  0  0  0  0
   -3.1689   -3.2498    0.0000 C   0  0  0  0  0  0  0  0  0  0  0  0
   -2.3439   -1.8209    0.0000 O   0  0  0  0  0  0  0  0  0  0  0  0
    2.1228   -1.8209    0.0000 C   0  0  0  0  0  0  0  0  0  0  0  0
    2.5353   -1.1064    0.0000 C   0  0  0  0  0  0  0  0  0  0  0  0
    3.3603   -1.1064    0.0000 C   0  0  0  0  0  0  0  0  0  0  0  0
    3.7728   -1.8209    0.0000 C   0  0  0  0  0  0  0  0  0  0  0  0
    4.5978   -1.8209    0.0000 F   0  0  0  0  0  0  0  0  0  0  0  0
    3.3603   -2.5353    0.0000 C   0  0  0  0  0  0  0  0  0  0  0  0
    2.5353   -2.5353    0.0000 C   0  0  0  0  0  0  0  0  0  0  0  0
    0.7145   -0.4125    0.0000 C   0  0  0  0  0  0  0  0  0  0  0  0
   -0.0000   -0.0000    0.0000 C   0  0  0  0  0  0  0  0  0  0  0  0
   -0.0000    0.8250    0.0000 C   0  0  0  0  0  0  0  0  0  0  0  0
    0.7145    1.2375    0.0000 C   0  0  0  0  0  0  0  0  0  0  0  0
    0.7145    2.0625    0.0000 O   0  0  0  0  0  0  0  0  0  0  0  0
    1.4289    0.8250    0.0000 C   0  0  0  0  0  0  0  0  0  0  0  0
    1.4289   -0.0000    0.0000 C   0  0  0  0  0  0  0  0  0  0  0  0
  1  2  1  0  0  0  0
  2  3  1  0  0  0  0
  3  4  2  0  0  0  0
  3  5  1  0  0  0  0
  1  5  1  0  0  0  0
  5  6  1  6  0  0  0
  6  7  1  0  0  0  0
  7  8  1  0  0  0  0
  8  9  1  0  0  0  0
  9 10  2  0  0  0  0
 10 11  1  0  0  0  0
 11 12  2  0  0  0  0
 12 13  1  0  0  0  0
 12 14  1  0  0  0  0
 14 15  2  0  0  0  0
  9 15  1  0  0  0  0
  8 16  1  1  0  0  0
  2 17  1  0  0  0  0
 17 18  2  0  0  0  0
 18 19  1  0  0  0  0
 19 20  2  0  0  0  0
 20 21  1  0  0  0  0
 20 22  1  0  0  0  0
 22 23  2  0  0  0  0
 17 23  1  0  0  0  0
  1 24  1  1  0  0  0
 24 25  2  0  0  0  0
 25 26  1  0  0  0  0
 26 27  2  0  0  0  0
 27 28  1  0  0  0  0
 27 29  1  0  0  0  0
 29 30  2  0  0  0  0
 24 30  1  0  0  0  0
M  END
>  <Name>
Ezetimibe

>  <CAS>
163222-33-1

>  <Formula>
C24H21F2NO3

>  <MolWt>
410.43 

>  <Bioactivity>
Ezetimibe is an anti-hyperlipidemic medication which is used to lower cholesterol levels. Specifically, it appears to bind to a critical mediator of cholesterol absorption, the Niemann-Pick C1-Like 1 (NPC1L1) protein on the gastrointestinal tract epithelial cells as well as in hepatocytes.


>  <Pathways>
Metabolism

>  <Target>
Cholesterol transport inhibitor;NPC1L1 inhibitor;APN

>  <Receptor>
Sterol O-acyltransferase;NPC1L1;APN

>  <Reference>
1. Singh A, et al. J Ind Microbiol Biotechnol. 2009 Nov;36(11):1369-74. 

$$$$
115103-54-3
  Mrv1561503291623562D          

 25 27  0  0  1  0            999 V2000
   -2.7512    8.0652    0.0000 C   0  0  1  0  0  0  0  0  0  0  0  0
   -2.7512    7.2402    0.0000 C   0  0  0  0  0  0  0  0  0  0  0  0
   -3.4656    6.8277    0.0000 N   0  0  0  0  0  0  0  0  0  0  0  0
   -3.4656    6.0027    0.0000 C   0  0  0  0  0  0  0  0  0  0  0  0
   -4.1801    5.5902    0.0000 C   0  0  0  0  0  0  0  0  0  0  0  0
   -4.1801    4.7652    0.0000 C   0  0  0  0  0  0  0  0  0  0  0  0
   -3.4656    4.3527    0.0000 C   0  0  0  0  0  0  0  0  0  0  0  0
   -3.4656    3.5277    0.0000 C   0  0  0  0  0  0  0  0  0  0  0  0
   -4.1331    3.0428    0.0000 C   0  0  0  0  0  0  0  0  0  0  0  0
   -3.8781    2.2581    0.0000 C   0  0  0  0  0  0  0  0  0  0  0  0
   -3.0531    2.2581    0.0000 C   0  0  0  0  0  0  0  0  0  0  0  0
   -2.7982    3.0428    0.0000 S   0  0  0  0  0  0  0  0  0  0  0  0
   -4.9177    3.2977    0.0000 C   0  0  0  0  0  0  0  0  0  0  0  0
   -2.7512    4.7652    0.0000 C   0  0  0  0  0  0  0  0  0  0  0  0
   -1.9975    4.4296    0.0000 C   0  0  0  0  0  0  0  0  0  0  0  0
   -1.4455    5.0427    0.0000 C   0  0  0  0  0  0  0  0  0  0  0  0
   -1.8580    5.7572    0.0000 C   0  0  0  0  0  0  0  0  0  0  0  0
   -2.6649    5.5857    0.0000 S   0  0  0  0  0  0  0  0  0  0  0  0
   -1.8260    3.6227    0.0000 C   0  0  0  0  0  0  0  0  0  0  0  0
   -4.1801    7.2402    0.0000 C   0  0  0  0  0  0  0  0  0  0  0  0
   -4.1801    8.0652    0.0000 C   0  0  0  0  0  0  0  0  0  0  0  0
   -3.4656    8.4777    0.0000 C   0  0  0  0  0  0  0  0  0  0  0  0
   -2.0367    8.4777    0.0000 C   0  0  0  0  0  0  0  0  0  0  0  0
   -2.0367    9.3027    0.0000 O   0  0  0  0  0  0  0  0  0  0  0  0
   -1.3222    8.0652    0.0000 O   0  0  0  0  0  0  0  0  0  0  0  0
  1  2  1  0  0  0  0
  2  3  1  0  0  0  0
  3  4  1  0  0  0  0
  4  5  1  0  0  0  0
  5  6  1  0  0  0  0
  6  7  2  0  0  0  0
  7  8  1  0  0  0  0
  8  9  2  0  0  0  0
  9 10  1  0  0  0  0
 10 11  2  0  0  0  0
 11 12  1  0  0  0  0
  8 12  1  0  0  0  0
  9 13  1  0  0  0  0
  7 14  1  0  0  0  0
 14 15  2  0  0  0  0
 15 16  1  0  0  0  0
 16 17  2  0  0  0  0
 17 18  1  0  0  0  0
 14 18  1  0  0  0  0
 15 19  1  0  0  0  0
  3 20  1  0  0  0  0
 20 21  1  0  0  0  0
 21 22  1  0  0  0  0
  1 22  1  0  0  0  0
  1 23  1  1  0  0  0
 23 24  1  0  0  0  0
 23 25  2  0  0  0  0
M  END
>  <Name>
Tiagabine

>  <CAS>
115103-54-3

>  <Formula>
C20H25NO2S2

>  <MolWt>
375.55 

>  <Bioactivity>
Tiagabine(NO328) is a selective gamma-aminobutyric acid (GABA) reuptake inhibitor.

>  <Pathways>
Neuroscience

>  <Target>
GABAR inhibitor

>  <Receptor>
GABA

>  <Reference>
1. Pollack M.H., et al. J Clin Psychiatry, 2005. 66(11): p. 1401-8.

$$$$
1508-65-2
  Mrv1561503291623562D          

 28 27  0  0  0  0            999 V2000
    0.4125    0.0000    0.0000 H   0  3  0  0  0  0  0  0  0  0  0  0
    4.5302   -0.0641    0.0000 C   0  0  0  0  0  0  0  0  0  0  0  0
    5.2446    0.3484    0.0000 C   0  0  0  0  0  0  0  0  0  0  0  0
    5.2446    1.1734    0.0000 C   0  0  0  0  0  0  0  0  0  0  0  0
    5.2446    1.9984    0.0000 O   0  0  0  0  0  0  0  0  0  0  0  0
    4.4196    1.1734    0.0000 C   0  0  0  0  0  0  0  0  0  0  0  0
    4.0071    0.4590    0.0000 C   0  0  0  0  0  0  0  0  0  0  0  0
    3.1821    0.4590    0.0000 C   0  0  0  0  0  0  0  0  0  0  0  0
    2.7696    1.1734    0.0000 C   0  0  0  0  0  0  0  0  0  0  0  0
    3.1821    1.8879    0.0000 C   0  0  0  0  0  0  0  0  0  0  0  0
    4.0071    1.8879    0.0000 C   0  0  0  0  0  0  0  0  0  0  0  0
    6.0696    1.1734    0.0000 C   0  0  0  0  0  0  0  0  0  0  0  0
    6.4821    0.4590    0.0000 O   0  0  0  0  0  0  0  0  0  0  0  0
    7.3071    0.4590    0.0000 C   0  0  0  0  0  0  0  0  0  0  0  0
    7.7196   -0.2555    0.0000 C   0  0  0  0  0  0  0  0  0  0  0  0
    8.1321   -0.9700    0.0000 C   0  0  0  0  0  0  0  0  0  0  0  0
    8.5446   -1.6845    0.0000 C   0  0  0  0  0  0  0  0  0  0  0  0
    9.3696   -1.6845    0.0000 N   0  0  0  0  0  0  0  0  0  0  0  0
    9.7821   -2.3989    0.0000 C   0  0  0  0  0  0  0  0  0  0  0  0
   10.6071   -2.3989    0.0000 C   0  0  0  0  0  0  0  0  0  0  0  0
    9.7821   -0.9700    0.0000 C   0  0  0  0  0  0  0  0  0  0  0  0
   10.6071   -0.9700    0.0000 C   0  0  0  0  0  0  0  0  0  0  0  0
    6.4821    1.8879    0.0000 O   0  0  0  0  0  0  0  0  0  0  0  0
    5.9591   -0.0641    0.0000 C   0  0  0  0  0  0  0  0  0  0  0  0
    5.9591   -0.8891    0.0000 C   0  0  0  0  0  0  0  0  0  0  0  0
    5.2446   -1.3016    0.0000 C   0  0  0  0  0  0  0  0  0  0  0  0
    4.5302   -0.8891    0.0000 C   0  0  0  0  0  0  0  0  0  0  0  0
   -0.4125    0.0000    0.0000 Cl  0  5  0  0  0  0  0  0  0  0  0  0
  2  3  2  0  0  0  0
  3  4  1  0  0  0  0
  4  5  1  0  0  0  0
  4  6  1  0  0  0  0
  6  7  1  0  0  0  0
  7  8  1  0  0  0  0
  8  9  1  0  0  0  0
  9 10  1  0  0  0  0
 10 11  1  0  0  0  0
  6 11  1  0  0  0  0
  4 12  1  0  0  0  0
 12 13  1  0  0  0  0
 13 14  1  0  0  0  0
 14 15  1  0  0  0  0
 15 16  3  0  0  0  0
 16 17  1  0  0  0  0
 17 18  1  0  0  0  0
 18 19  1  0  0  0  0
 19 20  1  0  0  0  0
 18 21  1  0  0  0  0
 21 22  1  0  0  0  0
 12 23  2  0  0  0  0
  3 24  1  0  0  0  0
 24 25  2  0  0  0  0
 25 26  1  0  0  0  0
 26 27  2  0  0  0  0
  2 27  1  0  0  0  0
M  CHG  2   1   1  28  -1
M  END
>  <Name>
Oxybutynin HCl

>  <CAS>
1508-65-2

>  <Formula>
C22H32ClNO3

>  <MolWt>
393.96 

>  <Bioactivity>
Oxybutynin is an anticholinergic medication used to relieve urinary and bladder difficulties, including frequent urination and inability to control urination, by decreasing muscle spasms of the bladder. It competitively antagonizes the M1, M2, and M3 subtypes of the muscarinic acetylcholine receptor. 

>  <Pathways>
Neuroscience

>  <Target>
AChR antagonist

>  <Receptor>
Muscarinic AChR

>  <Reference>
1. Ito Y, et al. Eur J Pharmacol. 2009 Aug 1;615(1-3):201-6. 

$$$$
61718-82-9
  Mrv1561503291623562D          

 30 29  0  0  0  0            999 V2000
   -1.2341   -1.5000    0.0000 C   0  0  0  0  0  0  0  0  0  0  0  0
   -1.9486   -1.0875    0.0000 C   0  0  0  0  0  0  0  0  0  0  0  0
   -2.6630   -1.5000    0.0000 C   0  0  0  0  0  0  0  0  0  0  0  0
   -3.3775   -1.9125    0.0000 F   0  0  0  0  0  0  0  0  0  0  0  0
   -2.2505   -2.2145    0.0000 F   0  0  0  0  0  0  0  0  0  0  0  0
   -3.0755   -0.7855    0.0000 F   0  0  0  0  0  0  0  0  0  0  0  0
   -1.9486   -0.2625    0.0000 C   0  0  0  0  0  0  0  0  0  0  0  0
   -1.2341    0.1500    0.0000 C   0  0  0  0  0  0  0  0  0  0  0  0
   -0.5196   -0.2625    0.0000 C   0  0  0  0  0  0  0  0  0  0  0  0
   -0.5196   -1.0875    0.0000 C   0  0  0  0  0  0  0  0  0  0  0  0
    0.1949    0.1500    0.0000 C   0  0  0  0  0  0  0  0  0  0  0  0
    0.1949    0.9750    0.0000 N   0  0  0  0  0  0  0  0  0  0  0  0
    0.9093    1.3875    0.0000 O   0  0  0  0  0  0  0  0  0  0  0  0
    0.9093    2.2125    0.0000 C   0  0  0  0  0  0  0  0  0  0  0  0
    0.1949    2.6250    0.0000 C   0  0  0  0  0  0  0  0  0  0  0  0
    0.1949    3.4500    0.0000 N   0  0  0  0  0  0  0  0  0  0  0  0
    0.9093   -0.2625    0.0000 C   0  0  0  0  0  0  0  0  0  0  0  0
    1.6238    0.1500    0.0000 C   0  0  0  0  0  0  0  0  0  0  0  0
    2.3383   -0.2625    0.0000 C   0  0  0  0  0  0  0  0  0  0  0  0
    3.0527    0.1500    0.0000 C   0  0  0  0  0  0  0  0  0  0  0  0
    3.7672   -0.2625    0.0000 O   0  0  0  0  0  0  0  0  0  0  0  0
    4.4817    0.1500    0.0000 C   0  0  0  0  0  0  0  0  0  0  0  0
    9.6674   -0.0000    0.0000 O   0  0  0  0  0  0  0  0  0  0  0  0
    8.8424    0.0000    0.0000 C   0  0  0  0  0  0  0  0  0  0  0  0
    8.4299   -0.7145    0.0000 O   0  0  0  0  0  0  0  0  0  0  0  0
    8.4299    0.7145    0.0000 C   0  0  0  0  0  0  0  0  0  0  0  0
    7.6049    0.7145    0.0000 C   0  0  0  0  0  0  0  0  0  0  0  0
    7.1924    0.0000    0.0000 C   0  0  0  0  0  0  0  0  0  0  0  0
    7.6049   -0.7145    0.0000 O   0  0  0  0  0  0  0  0  0  0  0  0
    6.3674    0.0000    0.0000 O   0  0  0  0  0  0  0  0  0  0  0  0
  1  2  2  0  0  0  0
  2  3  1  0  0  0  0
  3  4  1  0  0  0  0
  3  5  1  0  0  0  0
  3  6  1  0  0  0  0
  2  7  1  0  0  0  0
  7  8  2  0  0  0  0
  8  9  1  0  0  0  0
  9 10  2  0  0  0  0
  1 10  1  0  0  0  0
  9 11  1  0  0  0  0
 11 12  2  0  0  0  0
 12 13  1  0  0  0  0
 13 14  1  0  0  0  0
 14 15  1  0  0  0  0
 15 16  1  0  0  0  0
 11 17  1  0  0  0  0
 17 18  1  0  0  0  0
 18 19  1  0  0  0  0
 19 20  1  0  0  0  0
 20 21  1  0  0  0  0
 21 22  1  0  0  0  0
 23 24  2  0  0  0  0
 24 25  1  0  0  0  0
 24 26  1  0  0  0  0
 26 27  2  0  0  0  0
 27 28  1  0  0  0  0
 28 29  2  0  0  0  0
 28 30  1  0  0  0  0
M  END
>  <Name>
Fluvoxamine maleate

>  <CAS>
61718-82-9

>  <Formula>
C19H25F3N2O6

>  <MolWt>
434.41 

>  <Bioactivity>
Fluvoxamine maleate is a selective serotonin (5-HT) reuptake inhibitor (SSRI).

>  <Pathways>
Neuroscience

>  <Target>
5-HT Receptor antagonist

>  <Receptor>
5-HT Receptor

>  <Reference>
1. Claghorn JL, et al. J Clin Psychopharmacol. 1996 Apr;16(2):113-20.

$$$$
120638-55-3
  Mrv1561503291623562D          

 45 42  0  0  0  0            999 V2000
    1.2588    0.7661    0.0000 C   0  0  0  0  0  0  0  0  0  0  0  0
    1.2588   -0.0589    0.0000 C   0  0  0  0  0  0  0  0  0  0  0  0
    0.5444   -0.4714    0.0000 C   0  0  0  0  0  0  0  0  0  0  0  0
   -0.1701   -0.0589    0.0000 C   0  0  0  0  0  0  0  0  0  0  0  0
   -0.1701    0.7661    0.0000 C   0  0  0  0  0  0  0  0  0  0  0  0
    0.5444    1.1786    0.0000 C   0  0  0  0  0  0  0  0  0  0  0  0
    0.5444    2.0036    0.0000 C   0  0  0  0  0  0  0  0  0  0  0  0
    1.2588    2.4161    0.0000 C   0  0  0  0  0  0  0  0  0  0  0  0
    1.2588    3.2411    0.0000 O   0  5  0  0  0  0  0  0  0  0  0  0
    1.9733    2.0036    0.0000 O   0  0  0  0  0  0  0  0  0  0  0  0
   -0.8846    1.1786    0.0000 N   0  0  0  0  0  0  0  0  0  0  0  0
   -0.8846   -0.4714    0.0000 C   0  0  0  0  0  0  0  0  0  0  0  0
   -1.5991   -0.0589    0.0000 O   0  0  0  0  0  0  0  0  0  0  0  0
   -0.8846   -1.2964    0.0000 C   0  0  0  0  0  0  0  0  0  0  0  0
   -0.1701   -1.7089    0.0000 C   0  0  0  0  0  0  0  0  0  0  0  0
   -0.1701   -2.5339    0.0000 C   0  0  0  0  0  0  0  0  0  0  0  0
   -0.8846   -2.9464    0.0000 C   0  0  0  0  0  0  0  0  0  0  0  0
   -0.8846   -3.7714    0.0000 Br  0  0  0  0  0  0  0  0  0  0  0  0
   -1.5991   -2.5339    0.0000 C   0  0  0  0  0  0  0  0  0  0  0  0
   -1.5991   -1.7089    0.0000 C   0  0  0  0  0  0  0  0  0  0  0  0
    6.7169    0.7661    0.0000 C   0  0  0  0  0  0  0  0  0  0  0  0
    6.7169   -0.0589    0.0000 C   0  0  0  0  0  0  0  0  0  0  0  0
    6.0024   -0.4714    0.0000 C   0  0  0  0  0  0  0  0  0  0  0  0
    5.2880   -0.0589    0.0000 C   0  0  0  0  0  0  0  0  0  0  0  0
    5.2880    0.7661    0.0000 C   0  0  0  0  0  0  0  0  0  0  0  0
    6.0024    1.1786    0.0000 C   0  0  0  0  0  0  0  0  0  0  0  0
    6.0024    2.0036    0.0000 C   0  0  0  0  0  0  0  0  0  0  0  0
    6.7169    2.4161    0.0000 C   0  0  0  0  0  0  0  0  0  0  0  0
    6.7169    3.2411    0.0000 O   0  5  0  0  0  0  0  0  0  0  0  0
    7.4314    2.0036    0.0000 O   0  0  0  0  0  0  0  0  0  0  0  0
    4.5735    1.1786    0.0000 N   0  0  0  0  0  0  0  0  0  0  0  0
    4.5735   -0.4714    0.0000 C   0  0  0  0  0  0  0  0  0  0  0  0
    3.8590   -0.0589    0.0000 O   0  0  0  0  0  0  0  0  0  0  0  0
    4.5735   -1.2964    0.0000 C   0  0  0  0  0  0  0  0  0  0  0  0
    5.2880   -1.7089    0.0000 C   0  0  0  0  0  0  0  0  0  0  0  0
    5.2880   -2.5339    0.0000 C   0  0  0  0  0  0  0  0  0  0  0  0
    4.5735   -2.9464    0.0000 C   0  0  0  0  0  0  0  0  0  0  0  0
    4.5735   -3.7714    0.0000 Br  0  0  0  0  0  0  0  0  0  0  0  0
    3.8590   -2.5339    0.0000 C   0  0  0  0  0  0  0  0  0  0  0  0
    3.8590   -1.7089    0.0000 C   0  0  0  0  0  0  0  0  0  0  0  0
    1.2588    4.0661    0.0000 Na  0  3  0  0  0  0  0  0  0  0  0  0
    6.7169    4.0661    0.0000 Na  0  3  0  0  0  0  0  0  0  0  0  0
    9.7885    0.0000    0.0000 O   0  0  0  0  0  0  0  0  0  0  0  0
    0.0000   -5.4214    0.0000 O   0  0  0  0  0  0  0  0  0  0  0  0
    2.3571   -5.4214    0.0000 O   0  0  0  0  0  0  0  0  0  0  0  0
  1  2  2  0  0  0  0
  2  3  1  0  0  0  0
  3  4  2  0  0  0  0
  4  5  1  0  0  0  0
  5  6  2  0  0  0  0
  1  6  1  0  0  0  0
  6  7  1  0  0  0  0
  7  8  1  0  0  0  0
  8  9  1  0  0  0  0
  8 10  2  0  0  0  0
  5 11  1  0  0  0  0
  4 12  1  0  0  0  0
 12 13  2  0  0  0  0
 12 14  1  0  0  0  0
 14 15  2  0  0  0  0
 15 16  1  0  0  0  0
 16 17  2  0  0  0  0
 17 18  1  0  0  0  0
 17 19  1  0  0  0  0
 19 20  2  0  0  0  0
 14 20  1  0  0  0  0
 21 22  2  0  0  0  0
 22 23  1  0  0  0  0
 23 24  2  0  0  0  0
 24 25  1  0  0  0  0
 25 26  2  0  0  0  0
 21 26  1  0  0  0  0
 26 27  1  0  0  0  0
 27 28  1  0  0  0  0
 28 29  1  0  0  0  0
 28 30  2  0  0  0  0
 25 31  1  0  0  0  0
 24 32  1  0  0  0  0
 32 33  2  0  0  0  0
 32 34  1  0  0  0  0
 34 35  2  0  0  0  0
 35 36  1  0  0  0  0
 36 37  2  0  0  0  0
 37 38  1  0  0  0  0
 37 39  1  0  0  0  0
 39 40  2  0  0  0  0
 34 40  1  0  0  0  0
M  CHG  4   9  -1  29  -1  41   1  42   1
M  END
>  <Name>
Bromfenac sodiu

>  <CAS>
120638-55-3

>  <Formula>
C15H11BrNNaO3

>  <MolWt>
356.15 

>  <Bioactivity>
Bromfenac Sodium is the sodium salt form of bromfenac, a nonsteroidal anti-inflammatory drug (NSAID) with analgesic and anti-inflammatory activities. Upon ophthalmic administration, bromfenac binds to and inhibits the activity of cyclooxygenase II (COX II), an enzyme which converts arachidonic acid to cyclic endoperoxides, precursors of prostaglandins (PG). By inhibiting PG formation, bromfenac is able to inhibit PG-induced inflammation, thereby preventing vasodilation, leukocytosis, disruption of the blood-aqueous humor barrier, an increase in vascular permeability and an increase in intraocular pressure (IOP).

>  <Pathways>
Neuroscience

>  <Target>
COX inhibitor

>  <Receptor>
COX-2

>  <Reference>
1. Shimura M, Yasuda K. Br J Ophthalmol. 2015 Feb;99(2):215-9. 

$$$$
T2411
  Mrv1561503291623562D          

 21 23  0  0  1  0            999 V2000
    0.7145   -1.2375    0.0000 C   0  0  1  0  0  0  0  0  0  0  0  0
    1.3819   -1.7224    0.0000 S   0  0  0  0  0  0  0  0  0  0  0  0
    1.1270   -2.5070    0.0000 C   0  0  0  0  0  0  0  0  0  0  0  0
    0.3020   -2.5070    0.0000 S   0  0  0  0  0  0  0  0  0  0  0  0
    0.0470   -1.7224    0.0000 C   0  0  0  0  0  0  0  0  0  0  0  0
    1.6119   -3.1745    0.0000 C   0  0  0  0  0  0  0  0  0  0  0  0
    1.2763   -3.9282    0.0000 N   0  0  0  0  0  0  0  0  0  0  0  0
    1.6888   -4.6426    0.0000 C   0  0  0  0  0  0  0  0  0  0  0  0
    1.1368   -5.2557    0.0000 N   0  0  0  0  0  0  0  0  0  0  0  0
    0.3831   -4.9202    0.0000 C   0  0  0  0  0  0  0  0  0  0  0  0
    0.4694   -4.0997    0.0000 C   0  0  0  0  0  0  0  0  0  0  0  0
    2.4324   -3.0882    0.0000 C   0  0  0  0  0  0  0  0  0  0  0  0
    3.2529   -3.0020    0.0000 N   0  0  0  0  0  0  0  0  0  0  0  0
    0.7145   -0.4125    0.0000 C   0  0  0  0  0  0  0  0  0  0  0  0
   -0.0000   -0.0000    0.0000 C   0  0  0  0  0  0  0  0  0  0  0  0
   -0.0000    0.8250    0.0000 C   0  0  0  0  0  0  0  0  0  0  0  0
    0.7145    1.2375    0.0000 C   0  0  0  0  0  0  0  0  0  0  0  0
    0.7145    2.0625    0.0000 Cl  0  0  0  0  0  0  0  0  0  0  0  0
    1.4289    0.8250    0.0000 C   0  0  0  0  0  0  0  0  0  0  0  0
    1.4289   -0.0000    0.0000 C   0  0  0  0  0  0  0  0  0  0  0  0
    2.1434   -0.4125    0.0000 Cl  0  0  0  0  0  0  0  0  0  0  0  0
  1  2  1  0  0  0  0
  2  3  1  0  0  0  0
  3  4  1  0  0  0  0
  4  5  1  0  0  0  0
  1  5  1  0  0  0  0
  3  6  2  0  0  0  0
  6  7  1  0  0  0  0
  7  8  1  0  0  0  0
  8  9  2  0  0  0  0
  9 10  1  0  0  0  0
 10 11  2  0  0  0  0
  7 11  1  0  0  0  0
  6 12  1  0  0  0  0
 12 13  3  0  0  0  0
  1 14  1  1  0  0  0
 14 15  2  0  0  0  0
 15 16  1  0  0  0  0
 16 17  2  0  0  0  0
 17 18  1  0  0  0  0
 17 19  1  0  0  0  0
 19 20  2  0  0  0  0
 14 20  1  0  0  0  0
 20 21  1  0  0  0  0
M  END
>  <Name>
Luliconazole

>  <CAS>
187164-19-8

>  <Formula>
C14H9Cl2N3S2

>  <MolWt>
354.28 

>  <Bioactivity>
Luliconazole is a broad-spectrum antifungal drug.

>  <Pathways>
Microbiology & Virology 

>  <Target>
Antifungal

>  <Receptor>
antifungal

>  <Reference>
1. Uchida K, et al. J Infect Chemother, 2004, 10(4), 216-219.

$$$$
T0992
  Mrv1561503291623562D          

 43 45  0  0  1  0            999 V2000
   -1.4289    3.3000    0.0000 C   0  0  0  0  0  0  0  0  0  0  0  0
   -2.1434    2.8875    0.0000 C   0  0  0  0  0  0  0  0  0  0  0  0
   -2.8579    3.3000    0.0000 C   0  0  0  0  0  0  0  0  0  0  0  0
   -2.8579    4.1250    0.0000 C   0  0  0  0  0  0  0  0  0  0  0  0
   -2.1434    4.5375    0.0000 C   0  0  0  0  0  0  0  0  0  0  0  0
   -1.4289    4.1250    0.0000 C   0  0  0  0  0  0  0  0  0  0  0  0
   -0.7145    4.5375    0.0000 O   0  0  0  0  0  0  0  0  0  0  0  0
   -3.5724    4.5375    0.0000 C   0  0  0  0  0  0  0  0  0  0  0  0
   -4.2868    4.1250    0.0000 C   0  0  0  0  0  0  0  0  0  0  0  0
   -4.2868    3.3000    0.0000 C   0  0  0  0  0  0  0  0  0  0  0  0
   -3.5724    2.8875    0.0000 C   0  0  0  0  0  0  0  0  0  0  0  0
   -5.0013    4.5375    0.0000 C   0  0  0  0  0  0  0  0  0  0  0  0
   -5.0013    5.3625    0.0000 C   0  0  0  0  0  0  0  0  0  0  0  0
   -4.2868    5.7750    0.0000 C   0  0  0  0  0  0  0  0  0  0  0  0
   -3.5724    5.3625    0.0000 C   0  0  0  0  0  0  0  0  0  0  0  0
   -4.6741    6.5034    0.0000 C   0  0  0  0  0  0  0  0  0  0  0  0
   -5.4986    6.5322    0.0000 O   0  5  0  0  0  0  0  0  0  0  0  0
   -4.2370    7.2031    0.0000 O   0  0  0  0  0  0  0  0  0  0  0  0
   -3.8995    6.5034    0.0000 C   0  0  0  0  0  0  0  0  0  0  0  0
   -5.0013    3.7125    0.0000 C   0  0  0  0  0  0  0  0  0  0  0  0
   -2.8579    2.4750    0.0000 C   0  0  0  0  0  0  0  0  0  0  0  0
   -2.1434    2.0625    0.0000 C   0  0  0  0  0  0  0  0  0  0  0  0
   -1.4289    1.6500    0.0000 C   0  0  0  0  0  0  0  0  0  0  0  0
   -0.7145    2.0625    0.0000 C   0  0  0  0  0  0  0  0  0  0  0  0
   -0.7145    2.8875    0.0000 C   0  0  0  0  0  0  0  0  0  0  0  0
   -0.0000    3.3000    0.0000 C   0  0  0  0  0  0  0  0  0  0  0  0
    0.7145    2.8875    0.0000 C   0  0  0  0  0  0  0  0  0  0  0  0
    0.7145    2.0625    0.0000 C   0  0  0  0  0  0  0  0  0  0  0  0
    1.4289    1.6500    0.0000 O   0  0  0  0  0  0  0  0  0  0  0  0
    2.1434    2.0625    0.0000 C   0  0  0  0  0  0  0  0  0  0  0  0
    2.1434    2.8875    0.0000 O   0  0  0  0  0  0  0  0  0  0  0  0
    2.8579    1.6500    0.0000 C   0  0  0  0  0  0  0  0  0  0  0  0
    3.5724    2.0625    0.0000 C   0  0  0  0  0  0  0  0  0  0  0  0
    4.2868    1.6500    0.0000 C   0  0  0  0  0  0  0  0  0  0  0  0
    5.0013    2.0625    0.0000 O   0  5  0  0  0  0  0  0  0  0  0  0
    4.2868    0.8250    0.0000 O   0  0  0  0  0  0  0  0  0  0  0  0
    0.0000    1.6500    0.0000 C   0  0  0  0  0  0  0  0  0  0  0  0
    0.3873    0.9216    0.0000 C   0  0  0  0  0  0  0  0  0  0  0  0
   -0.3873    0.9216    0.0000 C   0  0  0  0  0  0  0  0  0  0  0  0
   -0.7145    3.7125    0.0000 C   0  0  0  0  0  0  0  0  0  0  0  0
   -2.4790    2.1338    0.0000 C   0  0  0  0  0  0  0  0  0  0  0  0
   -6.3231    6.5610    0.0000 Na  0  3  0  0  0  0  0  0  0  0  0  0
    5.7158    2.4750    0.0000 Na  0  3  0  0  0  0  0  0  0  0  0  0
  1  2  1  0  0  0  0
  2  3  1  0  0  0  0
  3  4  1  0  0  0  0
  4  5  2  0  0  0  0
  5  6  1  0  0  0  0
  1  6  1  0  0  0  0
  6  7  2  0  0  0  0
  4  8  1  0  0  0  0
  8  9  1  0  0  0  0
  9 10  1  0  0  0  0
 10 11  1  0  0  0  0
  3 11  1  0  0  0  0
  9 12  1  0  0  0  0
 12 13  1  0  0  0  0
 13 14  1  0  0  0  0
 14 15  1  0  0  0  0
  8 15  1  0  0  0  0
 14 16  1  0  0  0  0
 16 17  1  0  0  0  0
 16 18  2  0  0  0  0
 14 19  1  0  0  0  0
  9 20  1  0  0  0  0
  3 21  1  0  0  0  0
  2 22  1  0  0  0  0
 22 23  1  0  0  0  0
 23 24  1  0  0  0  0
 24 25  1  0  0  0  0
  1 25  1  0  0  0  0
 25 26  1  0  0  0  0
 26 27  1  0  0  0  0
 27 28  1  0  0  0  0
 28 29  1  0  0  0  0
 29 30  1  0  0  0  0
 30 31  2  0  0  0  0
 30 32  1  0  0  0  0
 32 33  1  0  0  0  0
 33 34  1  0  0  0  0
 34 35  1  0  0  0  0
 34 36  2  0  0  0  0
 28 37  1  0  0  0  0
 24 37  1  0  0  0  0
 37 38  1  0  0  0  0
 37 39  1  0  0  0  0
 25 40  1  0  0  0  0
  2 41  1  0  0  0  0
M  CHG  4  17  -1  35  -1  42   1  43   1
M  END
>  <Name>
Carbenoxolone disodium

>  <CAS>
7421-40-1

>  <Formula>
C34H48Na2O7

>  <MolWt>
614.72 

>  <Bioactivity>
An agent derived from licorice root. It is used for the treatment of digestive tract ulcers, especially in the stomach. Antidiuretic side effects are frequent, but otherwise the drug is low in toxicity.


>  <Pathways>
DNA Damage/DNA Repair

>  <Target>
Gap Junction

>  <Receptor>
Gap Junction

>  <Reference>
1. Hausmann W, Tárnoky AL. Br J Pharmacol Chemother. 1966 Feb;26(2):412-20.

$$$$
26864-56-2
  Mrv1561503291623562D          

 36 39  0  0  0  0            999 V2000
   -0.0000   -2.4750    0.0000 C   0  0  0  0  0  0  0  0  0  0  0  0
   -0.7145   -2.8875    0.0000 C   0  0  0  0  0  0  0  0  0  0  0  0
   -0.7145   -3.7125    0.0000 C   0  0  0  0  0  0  0  0  0  0  0  0
   -1.4289   -4.1250    0.0000 C   0  0  0  0  0  0  0  0  0  0  0  0
   -2.1434   -3.7125    0.0000 C   0  0  0  0  0  0  0  0  0  0  0  0
   -2.8579   -4.1250    0.0000 C   0  0  0  0  0  0  0  0  0  0  0  0
   -3.5724   -3.7125    0.0000 N   0  0  0  0  0  0  0  0  0  0  0  0
   -4.2868   -4.1250    0.0000 C   0  0  0  0  0  0  0  0  0  0  0  0
   -5.0013   -3.7125    0.0000 C   0  0  0  0  0  0  0  0  0  0  0  0
   -5.0013   -2.8875    0.0000 C   0  0  0  0  0  0  0  0  0  0  0  0
   -4.2868   -2.4750    0.0000 C   0  0  0  0  0  0  0  0  0  0  0  0
   -3.5724   -2.8875    0.0000 C   0  0  0  0  0  0  0  0  0  0  0  0
   -5.8258   -2.8587    0.0000 C   0  0  0  0  0  0  0  0  0  0  0  0
   -6.2630   -3.5583    0.0000 C   0  0  0  0  0  0  0  0  0  0  0  0
   -7.0875   -3.5296    0.0000 C   0  0  0  0  0  0  0  0  0  0  0  0
   -7.4748   -2.8011    0.0000 C   0  0  0  0  0  0  0  0  0  0  0  0
   -7.0376   -2.1015    0.0000 C   0  0  0  0  0  0  0  0  0  0  0  0
   -6.2131   -2.1303    0.0000 C   0  0  0  0  0  0  0  0  0  0  0  0
   -7.4249   -1.3731    0.0000 C   0  0  0  0  0  0  0  0  0  0  0  0
   -7.8122   -0.6446    0.0000 F   0  0  0  0  0  0  0  0  0  0  0  0
   -8.1534   -1.7604    0.0000 F   0  0  0  0  0  0  0  0  0  0  0  0
   -6.6965   -0.9857    0.0000 F   0  0  0  0  0  0  0  0  0  0  0  0
   -8.2993   -2.7723    0.0000 Cl  0  0  0  0  0  0  0  0  0  0  0  0
   -5.4385   -2.1879    0.0000 O   0  0  0  0  0  0  0  0  0  0  0  0
    0.0000   -4.1250    0.0000 C   0  0  0  0  0  0  0  0  0  0  0  0
    0.7145   -3.7125    0.0000 C   0  0  0  0  0  0  0  0  0  0  0  0
    1.4289   -4.1250    0.0000 C   0  0  0  0  0  0  0  0  0  0  0  0
    1.4289   -4.9500    0.0000 C   0  0  0  0  0  0  0  0  0  0  0  0
    0.7145   -5.3625    0.0000 C   0  0  0  0  0  0  0  0  0  0  0  0
   -0.0000   -4.9500    0.0000 C   0  0  0  0  0  0  0  0  0  0  0  0
    2.1434   -5.3625    0.0000 F   0  0  0  0  0  0  0  0  0  0  0  0
   -1.4289   -2.4750    0.0000 C   0  0  0  0  0  0  0  0  0  0  0  0
   -1.4289   -1.6500    0.0000 C   0  0  0  0  0  0  0  0  0  0  0  0
   -0.7145   -1.2375    0.0000 C   0  0  0  0  0  0  0  0  0  0  0  0
   -0.0000   -1.6500    0.0000 C   0  0  0  0  0  0  0  0  0  0  0  0
   -0.7145   -0.4125    0.0000 F   0  0  0  0  0  0  0  0  0  0  0  0
  1  2  2  0  0  0  0
  2  3  1  0  0  0  0
  3  4  1  0  0  0  0
  4  5  1  0  0  0  0
  5  6  1  0  0  0  0
  6  7  1  0  0  0  0
  7  8  1  0  0  0  0
  8  9  1  0  0  0  0
  9 10  1  0  0  0  0
 10 11  1  0  0  0  0
 11 12  1  0  0  0  0
  7 12  1  0  0  0  0
 10 13  1  0  0  0  0
 13 14  2  0  0  0  0
 14 15  1  0  0  0  0
 15 16  2  0  0  0  0
 16 17  1  0  0  0  0
 17 18  2  0  0  0  0
 13 18  1  0  0  0  0
 17 19  1  0  0  0  0
 19 20  1  0  0  0  0
 19 21  1  0  0  0  0
 19 22  1  0  0  0  0
 16 23  1  0  0  0  0
 10 24  1  0  0  0  0
  3 25  1  0  0  0  0
 25 26  2  0  0  0  0
 26 27  1  0  0  0  0
 27 28  2  0  0  0  0
 28 29  1  0  0  0  0
 29 30  2  0  0  0  0
 25 30  1  0  0  0  0
 28 31  1  0  0  0  0
  2 32  1  0  0  0  0
 32 33  2  0  0  0  0
 33 34  1  0  0  0  0
 34 35  2  0  0  0  0
  1 35  1  0  0  0  0
 34 36  1  0  0  0  0
M  END
>  <Name>
Penfluridol

>  <CAS>
26864-56-2

>  <Formula>
C28H27ClF5NO

>  <MolWt>
523.97 

>  <Bioactivity>
Penfluridol is a highly potent, first generation diphenylbutylpiperidine antipsychotic.

>  <Pathways>
Neuroscience

>  <Target>
Dopamine Receptor antagonist

>  <Receptor>
Dopamine receptor

>  <Reference>
1. Creese I, et al. Science, 1976 , 192(4238), 481-483.

$$$$
T1223
  Mrv1561503291623562D          

 83 78  0  0  1  0            999 V2000
   -0.3523   -0.8148    0.0000 C   0  0  0  0  0  0  0  0  0  0  0  0
   -0.3523    0.0102    0.0000 N   0  0  0  0  0  0  0  0  0  0  0  0
    0.3621    0.4227    0.0000 C   0  0  0  0  0  0  0  0  0  0  0  0
    1.0766    0.0102    0.0000 C   0  0  0  0  0  0  0  0  0  0  0  0
    1.7911    0.4227    0.0000 C   0  0  0  0  0  0  0  0  0  0  0  0
    1.7911    1.2477    0.0000 S   0  0  0  0  0  0  0  0  0  0  0  0
    2.5056    1.6602    0.0000 C   0  0  0  0  0  0  0  0  0  0  0  0
    2.5056    2.4852    0.0000 N   0  0  0  0  0  0  0  0  0  0  0  0
    3.2200    2.8977    0.0000 C   0  0  0  0  0  0  0  0  0  0  0  0
    3.2200    3.7227    0.0000 O   0  0  0  0  0  0  0  0  0  0  0  0
    3.9345    2.4852    0.0000 C   0  0  0  0  0  0  0  0  0  0  0  0
    3.9345    1.6602    0.0000 N   0  0  0  0  0  0  0  0  0  0  0  0
    3.2200    1.2477    0.0000 N   0  0  0  0  0  0  0  0  0  0  0  0
    3.2200    0.4227    0.0000 C   0  0  0  0  0  0  0  0  0  0  0  0
    4.6490    2.8977    0.0000 O   0  5  0  0  0  0  0  0  0  0  0  0
    1.0766   -0.8148    0.0000 C   0  0  0  0  0  0  0  0  0  0  0  0
    0.3621   -1.2273    0.0000 S   0  0  0  0  0  0  0  0  0  0  0  0
    0.3621    1.2477    0.0000 C   0  0  0  0  0  0  0  0  0  0  0  0
   -0.3523    1.6602    0.0000 O   0  0  0  0  0  0  0  0  0  0  0  0
    1.0766    1.6602    0.0000 O   0  5  0  0  0  0  0  0  0  0  0  0
   -1.1773    0.0102    0.0000 C   0  0  0  0  0  0  0  0  0  0  0  0
   -1.7607    0.5936    0.0000 O   0  0  0  0  0  0  0  0  0  0  0  0
   -1.1773   -0.8148    0.0000 C   0  0  0  0  0  0  0  0  0  0  0  0
   -1.7607   -1.3981    0.0000 N   0  0  0  0  0  0  0  0  0  0  0  0
   -2.5576   -1.1846    0.0000 C   0  0  0  0  0  0  0  0  0  0  0  0
   -3.1409   -1.7680    0.0000 C   0  0  0  0  0  0  0  0  0  0  0  0
   -2.9274   -2.5649    0.0000 C   0  0  0  0  0  0  0  0  0  0  0  0
   -2.1572   -2.8605    0.0000 C   0  0  0  0  0  0  0  0  0  0  0  0
   -2.2004   -3.6844    0.0000 S   0  0  0  0  0  0  0  0  0  0  0  0
   -2.9973   -3.8979    0.0000 C   0  0  0  0  0  0  0  0  0  0  0  0
   -3.4466   -3.2060    0.0000 N   0  0  0  0  0  0  0  0  0  0  0  0
   -3.2929   -4.6681    0.0000 N   0  0  0  0  0  0  0  0  0  0  0  0
   -3.9378   -1.5545    0.0000 N   0  0  0  0  0  0  0  0  0  0  0  0
   -4.1514   -0.7576    0.0000 O   0  0  0  0  0  0  0  0  0  0  0  0
   -4.9483   -0.5440    0.0000 C   0  0  0  0  0  0  0  0  0  0  0  0
   -2.7711   -0.3877    0.0000 O   0  0  0  0  0  0  0  0  0  0  0  0
   11.3061   -0.0358    0.0000 C   0  0  0  0  0  0  0  0  0  0  0  0
   11.3061    0.7892    0.0000 N   0  0  0  0  0  0  0  0  0  0  0  0
   12.0206    1.2017    0.0000 C   0  0  0  0  0  0  0  0  0  0  0  0
   12.7350    0.7892    0.0000 C   0  0  0  0  0  0  0  0  0  0  0  0
   13.4495    1.2017    0.0000 C   0  0  0  0  0  0  0  0  0  0  0  0
   14.1640    0.7892    0.0000 S   0  0  0  0  0  0  0  0  0  0  0  0
   14.8784    1.2017    0.0000 C   0  0  0  0  0  0  0  0  0  0  0  0
   14.8784    2.0267    0.0000 N   0  0  0  0  0  0  0  0  0  0  0  0
   15.5929    2.4392    0.0000 C   0  0  0  0  0  0  0  0  0  0  0  0
   15.5929    3.2642    0.0000 O   0  0  0  0  0  0  0  0  0  0  0  0
   16.3074    2.0267    0.0000 C   0  0  0  0  0  0  0  0  0  0  0  0
   16.3074    1.2017    0.0000 N   0  5  0  0  0  0  0  0  0  0  0  0
   15.5929    0.7892    0.0000 N   0  0  0  0  0  0  0  0  0  0  0  0
   15.5929   -0.0358    0.0000 C   0  0  0  0  0  0  0  0  0  0  0  0
   17.0218    2.4392    0.0000 O   0  0  0  0  0  0  0  0  0  0  0  0
   12.7350   -0.0358    0.0000 C   0  0  0  0  0  0  0  0  0  0  0  0
   12.0206   -0.4483    0.0000 S   0  0  0  0  0  0  0  0  0  0  0  0
   12.0206    2.0267    0.0000 C   0  0  0  0  0  0  0  0  0  0  0  0
   11.3061    2.4392    0.0000 O   0  0  0  0  0  0  0  0  0  0  0  0
   12.7350    2.4392    0.0000 O   0  5  0  0  0  0  0  0  0  0  0  0
   10.4811    0.7892    0.0000 C   0  0  0  0  0  0  0  0  0  0  0  0
    9.8977    1.3725    0.0000 O   0  0  0  0  0  0  0  0  0  0  0  0
   10.4811   -0.0358    0.0000 C   0  0  0  0  0  0  0  0  0  0  0  0
    9.8977   -0.6192    0.0000 N   0  0  0  0  0  0  0  0  0  0  0  0
   10.1112   -1.4161    0.0000 C   0  0  0  0  0  0  0  0  0  0  0  0
    9.5279   -1.9995    0.0000 C   0  0  0  0  0  0  0  0  0  0  0  0
    9.7414   -2.7963    0.0000 C   0  0  0  0  0  0  0  0  0  0  0  0
   10.5116   -3.0920    0.0000 C   0  0  0  0  0  0  0  0  0  0  0  0
   10.4684   -3.9159    0.0000 S   0  0  0  0  0  0  0  0  0  0  0  0
    9.6715   -4.1294    0.0000 C   0  0  0  0  0  0  0  0  0  0  0  0
    9.2222   -3.4375    0.0000 N   0  0  0  0  0  0  0  0  0  0  0  0
    9.3759   -4.8996    0.0000 N   0  0  0  0  0  0  0  0  0  0  0  0
    8.7310   -1.7859    0.0000 N   0  0  0  0  0  0  0  0  0  0  0  0
    8.5175   -0.9890    0.0000 O   0  0  0  0  0  0  0  0  0  0  0  0
    7.7206   -0.7755    0.0000 C   0  0  0  0  0  0  0  0  0  0  0  0
   10.9081   -1.6296    0.0000 O   0  0  0  0  0  0  0  0  0  0  0  0
   19.3790    0.0000    0.0000 O   0  0  0  0  0  0  0  0  0  0  0  0
   21.7361    0.0000    0.0000 O   0  0  0  0  0  0  0  0  0  0  0  0
    0.0000   -6.5496    0.0000 O   0  0  0  0  0  0  0  0  0  0  0  0
    5.3634    3.3102    0.0000 Na  0  3  0  0  0  0  0  0  0  0  0  0
    1.7911    2.0727    0.0000 Na  0  3  0  0  0  0  0  0  0  0  0  0
   13.4495    2.8517    0.0000 Na  0  3  0  0  0  0  0  0  0  0  0  0
    2.3571   -6.5496    0.0000 Na  0  3  0  0  0  0  0  0  0  0  0  0
    4.7143   -6.5496    0.0000 O   0  0  0  0  0  0  0  0  0  0  0  0
    7.0714   -6.5496    0.0000 O   0  0  0  0  0  0  0  0  0  0  0  0
    0.0000   -8.1996    0.0000 O   0  0  0  0  0  0  0  0  0  0  0  0
    2.3571   -8.1996    0.0000 O   0  0  0  0  0  0  0  0  0  0  0  0
  1  2  1  0  0  0  0
  2  3  1  0  0  0  0
  3  4  2  0  0  0  0
  4  5  1  0  0  0  0
  5  6  1  0  0  0  0
  6  7  1  0  0  0  0
  7  8  2  0  0  0  0
  8  9  1  0  0  0  0
  9 10  2  0  0  0  0
  9 11  1  0  0  0  0
 11 12  2  0  0  0  0
 12 13  1  0  0  0  0
  7 13  1  0  0  0  0
 13 14  1  0  0  0  0
 11 15  1  0  0  0  0
  4 16  1  0  0  0  0
 16 17  1  0  0  0  0
  1 17  1  0  0  0  0
  3 18  1  0  0  0  0
 18 19  2  0  0  0  0
 18 20  1  0  0  0  0
  2 21  1  0  0  0  0
 21 22  2  0  0  0  0
 21 23  1  0  0  0  0
  1 23  1  0  0  0  0
 23 24  1  0  0  0  0
 24 25  1  0  0  0  0
 25 26  1  0  0  0  0
 26 27  1  0  0  0  0
 27 28  2  0  0  0  0
 28 29  1  0  0  0  0
 29 30  1  0  0  0  0
 30 31  2  0  0  0  0
 27 31  1  0  0  0  0
 30 32  1  0  0  0  0
 26 33  2  0  0  0  0
 33 34  1  0  0  0  0
 34 35  1  0  0  0  0
 25 36  2  0  0  0  0
 37 38  1  0  0  0  0
 38 39  1  0  0  0  0
 39 40  2  0  0  0  0
 40 41  1  0  0  0  0
 41 42  1  0  0  0  0
 42 43  1  0  0  0  0
 43 44  2  0  0  0  0
 44 45  1  0  0  0  0
 45 46  2  0  0  0  0
 45 47  1  0  0  0  0
 47 48  1  0  0  0  0
 48 49  1  0  0  0  0
 43 49  1  0  0  0  0
 49 50  1  0  0  0  0
 47 51  2  0  0  0  0
 40 52  1  0  0  0  0
 52 53  1  0  0  0  0
 37 53  1  0  0  0  0
 39 54  1  0  0  0  0
 54 55  2  0  0  0  0
 54 56  1  0  0  0  0
 38 57  1  0  0  0  0
 57 58  2  0  0  0  0
 57 59  1  0  0  0  0
 37 59  1  0  0  0  0
 59 60  1  0  0  0  0
 60 61  1  0  0  0  0
 61 62  1  0  0  0  0
 62 63  1  0  0  0  0
 63 64  2  0  0  0  0
 64 65  1  0  0  0  0
 65 66  1  0  0  0  0
 66 67  2  0  0  0  0
 63 67  1  0  0  0  0
 66 68  1  0  0  0  0
 62 69  2  0  0  0  0
 69 70  1  0  0  0  0
 70 71  1  0  0  0  0
 61 72  2  0  0  0  0
M  CHG  8  15  -1  20  -1  48  -1  56  -1  76   1  77   1  78   1  79   1
M  END
>  <Name>
Ceftriaxone sodium

>  <CAS>
104376-79-6

>  <Formula>
C18H16N8Na2O7S3,31/2H2O

>  <MolWt>
662.00 

>  <Bioactivity>
A broad-spectrum cephalosporin antibiotic with a very long half-life and high penetrability to meninges, eyes and inner ears.


>  <Pathways>
Microbiology & Virology

>  <Target>
Antibacterial

>  <Receptor>
Others

>  <Reference>
1. Brogden RN, et al. Drugs, 1988, 35(6), 604-645.

$$$$
T1569
  Mrv1561503291623562D          

 42 45  0  0  1  0            999 V2000
    3.5724   -3.7125    0.0000 C   0  0  1  0  0  0  0  0  0  0  0  0
    3.5724   -2.8875    0.0000 C   0  0  2  0  0  0  0  0  0  0  0  0
    3.5724   -2.0625    0.0000 O   0  0  0  0  0  0  0  0  0  0  0  0
    4.2868   -2.4750    0.0000 C   0  0  0  0  0  0  0  0  0  0  0  0
    4.2868   -1.6500    0.0000 O   0  0  0  0  0  0  0  0  0  0  0  0
    5.0013   -2.8875    0.0000 C   0  0  0  0  0  0  0  0  0  0  0  0
    5.7158   -2.4750    0.0000 C   0  0  0  0  0  0  0  0  0  0  0  0
    5.7158   -1.6500    0.0000 O   0  0  0  0  0  0  0  0  0  0  0  0
    6.4302   -2.8875    0.0000 C   0  0  0  0  0  0  0  0  0  0  0  0
    7.1447   -2.4750    0.0000 C   0  0  0  0  0  0  0  0  0  0  0  0
    7.1447   -1.6500    0.0000 O   0  0  0  0  0  0  0  0  0  0  0  0
    7.8592   -2.8875    0.0000 C   0  0  0  0  0  0  0  0  0  0  0  0
    7.8592   -3.7125    0.0000 C   0  0  0  0  0  0  0  0  0  0  0  0
    7.1447   -4.1250    0.0000 C   0  0  0  0  0  0  0  0  0  0  0  0
    6.4302   -3.7125    0.0000 C   0  0  0  0  0  0  0  0  0  0  0  0
    5.7158   -4.1250    0.0000 C   0  0  0  0  0  0  0  0  0  0  0  0
    5.0013   -3.7125    0.0000 C   0  0  1  0  0  0  0  0  0  0  0  0
    4.2868   -4.1250    0.0000 C   0  0  0  0  0  0  0  0  0  0  0  0
    7.1447   -4.9500    0.0000 N   0  0  0  0  0  0  0  0  0  0  0  0
    6.4302   -5.3625    0.0000 C   0  0  0  0  0  0  0  0  0  0  0  0
    7.8592   -5.3625    0.0000 C   0  0  0  0  0  0  0  0  0  0  0  0
    8.5737   -2.4750    0.0000 N   0  0  0  0  0  0  0  0  0  0  0  0
    9.2881   -2.8875    0.0000 C   0  0  0  0  0  0  0  0  0  0  0  0
    9.2881   -3.7125    0.0000 O   0  0  0  0  0  0  0  0  0  0  0  0
   10.0026   -2.4750    0.0000 C   0  0  0  0  0  0  0  0  0  0  0  0
   10.7171   -2.8875    0.0000 N   0  0  0  0  0  0  0  0  0  0  0  0
   11.4315   -2.4750    0.0000 C   0  0  0  0  0  0  0  0  0  0  0  0
   12.1460   -2.0625    0.0000 C   0  0  0  0  0  0  0  0  0  0  0  0
   11.0190   -1.7605    0.0000 C   0  0  0  0  0  0  0  0  0  0  0  0
   11.8440   -3.1895    0.0000 C   0  0  0  0  0  0  0  0  0  0  0  0
    2.8579   -2.4750    0.0000 C   0  0  0  0  0  0  0  0  0  0  0  0
    2.8579   -1.6500    0.0000 O   0  0  0  0  0  0  0  0  0  0  0  0
    2.1434   -2.8875    0.0000 C   0  0  0  0  0  0  0  0  0  0  0  0
    2.1434   -3.7125    0.0000 C   0  0  0  0  0  0  0  0  0  0  0  0
    1.4289   -4.1250    0.0000 O   0  0  0  0  0  0  0  0  0  0  0  0
    2.8579   -4.1250    0.0000 C   0  0  1  0  0  0  0  0  0  0  0  0
    2.8579   -4.9500    0.0000 N   0  0  0  0  0  0  0  0  0  0  0  0
    3.5724   -5.3625    0.0000 C   0  0  0  0  0  0  0  0  0  0  0  0
    2.1434   -5.3625    0.0000 C   0  0  0  0  0  0  0  0  0  0  0  0
    1.4289   -2.4750    0.0000 C   0  0  0  0  0  0  0  0  0  0  0  0
    1.4289   -1.6500    0.0000 O   0  0  0  0  0  0  0  0  0  0  0  0
    0.7145   -2.8875    0.0000 N   0  0  0  0  0  0  0  0  0  0  0  0
  1  2  1  0  0  0  0
  2  3  1  6  0  0  0
  2  4  1  0  0  0  0
  4  5  2  0  0  0  0
  4  6  1  0  0  0  0
  6  7  2  0  0  0  0
  7  8  1  0  0  0  0
  7  9  1  0  0  0  0
  9 10  2  0  0  0  0
 10 11  1  0  0  0  0
 10 12  1  0  0  0  0
 12 13  2  0  0  0  0
 13 14  1  0  0  0  0
 14 15  2  0  0  0  0
  9 15  1  0  0  0  0
 15 16  1  0  0  0  0
 16 17  1  0  0  0  0
  6 17  1  0  0  0  0
 17 18  1  1  0  0  0
  1 18  1  1  0  0  0
 14 19  1  0  0  0  0
 19 20  1  0  0  0  0
 19 21  1  0  0  0  0
 12 22  1  0  0  0  0
 22 23  1  0  0  0  0
 23 24  2  0  0  0  0
 23 25  1  0  0  0  0
 25 26  1  0  0  0  0
 26 27  1  0  0  0  0
 27 28  1  0  0  0  0
 27 29  1  0  0  0  0
 27 30  1  0  0  0  0
  2 31  1  0  0  0  0
 31 32  2  0  0  0  0
 31 33  1  0  0  0  0
 33 34  1  0  0  0  0
 34 35  2  0  0  0  0
 34 36  1  0  0  0  0
  1 36  1  0  0  0  0
 36 37  1  6  0  0  0
 37 38  1  0  0  0  0
 37 39  1  0  0  0  0
 33 40  2  0  0  0  0
 40 41  1  0  0  0  0
 40 42  1  0  0  0  0
M  END
>  <Name>
Tigecycline

>  <CAS>
220620-09-7

>  <Formula>
C29H39N5O8

>  <MolWt>
585.65 

>  <Bioactivity>
Tigecycline is bacteriostatic and is a protein synthesis inhibitor by binding to the 30S ribosomal subunit of bacteria and thereby blocking entry of Aminoacyl-tRNA into the A site of the ribosome during prokaryotic translation.

>  <Pathways>
Microbiology & Virology

>  <Target>
Antibacterial

>  <Receptor>
30S ribosomal protein

>  <Reference>
1. Livermore DM, et al. J Antimicrob Chemother, 2005, 56(4), 611-614.

$$$$
50700-72-6
  Mrv1561503291623562D          

 41 45  0  0  1  0            999 V2000
    0.2355   -0.5016    0.0000 C   0  0  1  0  0  0  0  0  0  0  0  0
    1.0476   -0.3564    0.0000 C   0  0  1  0  0  0  0  0  0  0  0  0
    1.3279    0.4195    0.0000 C   0  0  1  0  0  0  0  0  0  0  0  0
    2.1525    0.3927    0.0000 C   0  0  1  0  0  0  0  0  0  0  0  0
    2.6588    1.0441    0.0000 O   0  0  0  0  0  0  0  0  0  0  0  0
    3.4761    0.9312    0.0000 C   0  0  0  0  0  0  0  0  0  0  0  0
    3.9824    1.5825    0.0000 O   0  0  0  0  0  0  0  0  0  0  0  0
    3.7869    0.1670    0.0000 C   0  0  0  0  0  0  0  0  0  0  0  0
    2.3818   -0.3998    0.0000 C   0  0  1  0  0  0  0  0  0  0  0  0
    3.1577   -0.6801    0.0000 N   0  3  0  0  0  0  0  0  0  0  0  0
    3.9827   -0.6781    0.0000 C   0  0  0  0  0  0  0  0  0  0  0  0
    4.3969   -1.3916    0.0000 C   0  0  0  0  0  0  0  0  0  0  0  0
    3.9861   -2.1070    0.0000 C   0  0  0  0  0  0  0  0  0  0  0  0
    3.1611   -2.1090    0.0000 C   0  0  0  0  0  0  0  0  0  0  0  0
    2.7469   -1.3955    0.0000 C   0  0  0  0  0  0  0  0  0  0  0  0
    3.2990    0.1327    0.0000 C   0  0  0  0  0  0  0  0  0  0  0  0
    1.6989   -0.8627    0.0000 C   0  0  0  0  0  0  0  0  0  0  0  0
    0.7961    1.0502    0.0000 C   0  0  0  0  0  0  0  0  0  0  0  0
   -0.0160    0.9050    0.0000 C   0  0  0  0  0  0  0  0  0  0  0  0
   -0.2963    0.1291    0.0000 C   0  0  2  0  0  0  0  0  0  0  0  0
   -1.1085   -0.0161    0.0000 C   0  0  2  0  0  0  0  0  0  0  0  0
   -1.3888   -0.7920    0.0000 C   0  0  1  0  0  0  0  0  0  0  0  0
   -0.8569   -1.4227    0.0000 C   0  0  0  0  0  0  0  0  0  0  0  0
   -0.0448   -1.2775    0.0000 C   0  0  0  0  0  0  0  0  0  0  0  0
   -2.2009   -0.9373    0.0000 C   0  0  0  0  0  0  0  0  0  0  0  0
   -2.7327   -0.3065    0.0000 C   0  0  2  0  0  0  0  0  0  0  0  0
   -3.5448   -0.4518    0.0000 O   0  0  0  0  0  0  0  0  0  0  0  0
   -3.8251   -1.2277    0.0000 C   0  0  0  0  0  0  0  0  0  0  0  0
   -3.2933   -1.8584    0.0000 O   0  0  0  0  0  0  0  0  0  0  0  0
   -4.6372   -1.3729    0.0000 C   0  0  0  0  0  0  0  0  0  0  0  0
   -2.4524    0.4694    0.0000 C   0  0  1  0  0  0  0  0  0  0  0  0
   -2.9842    1.1001    0.0000 N   0  0  0  0  0  0  0  0  0  0  0  0
   -3.7963    0.9549    0.0000 C   0  0  0  0  0  0  0  0  0  0  0  0
   -4.3282    1.5856    0.0000 C   0  0  0  0  0  0  0  0  0  0  0  0
   -4.0479    2.3615    0.0000 C   0  0  0  0  0  0  0  0  0  0  0  0
   -3.2357    2.5067    0.0000 C   0  0  0  0  0  0  0  0  0  0  0  0
   -2.7039    1.8760    0.0000 C   0  0  0  0  0  0  0  0  0  0  0  0
   -1.6403    0.6146    0.0000 C   0  0  0  0  0  0  0  0  0  0  0  0
   -0.8282    0.7598    0.0000 C   0  0  0  0  0  0  0  0  0  0  0  0
    1.6878    1.1619    0.0000 C   0  0  0  0  0  0  0  0  0  0  0  0
    6.7540    0.0000    0.0000 Br  0  5  0  0  0  0  0  0  0  0  0  0
  1  2  1  0  0  0  0
  2  3  1  0  0  0  0
  3  4  1  0  0  0  0
  4  5  1  1  0  0  0
  5  6  1  0  0  0  0
  6  7  2  0  0  0  0
  6  8  1  0  0  0  0
  4  9  1  0  0  0  0
  9 10  1  1  0  0  0
 10 11  1  0  0  0  0
 11 12  1  0  0  0  0
 12 13  1  0  0  0  0
 13 14  1  0  0  0  0
 14 15  1  0  0  0  0
 10 15  1  0  0  0  0
 10 16  1  0  0  0  0
  9 17  1  0  0  0  0
  2 17  1  1  0  0  0
  3 18  1  0  0  0  0
 18 19  1  0  0  0  0
 20 19  1  1  0  0  0
  1 20  1  0  0  0  0
 20 21  1  0  0  0  0
 21 22  1  0  0  0  0
 22 23  1  0  0  0  0
 23 24  1  0  0  0  0
  1 24  1  6  0  0  0
 22 25  1  1  0  0  0
 25 26  1  0  0  0  0
 26 27  1  6  0  0  0
 27 28  1  0  0  0  0
 28 29  2  0  0  0  0
 28 30  1  0  0  0  0
 26 31  1  0  0  0  0
 31 32  1  1  0  0  0
 32 33  1  0  0  0  0
 33 34  1  0  0  0  0
 34 35  1  0  0  0  0
 35 36  1  0  0  0  0
 36 37  1  0  0  0  0
 32 37  1  0  0  0  0
 31 38  1  0  0  0  0
 21 38  1  0  0  0  0
 21 39  1  1  0  0  0
  3 40  1  1  0  0  0
M  CHG  2  10   1  41  -1
M  END
>  <Name>
Vecuronium bromide

>  <CAS>
50700-72-6

>  <Formula>
C34H57BrN2O4

>  <MolWt>
637.73 

>  <Bioactivity>
Monoquaternary homolog of PANCURONIUM. A non-depolarizing neuromuscular blocking agent with shorter duration of action than pancuronium. Its lack of significant cardiovascular effects and lack of dependence on good kidney function for elimination as well as its short duration of action and easy reversibility provide advantages over, or alternatives to, other established neuromuscular blocking agents.


>  <Pathways>
Neuroscience

>  <Target>
AChR antagonist

>  <Receptor>
Neuronal AChR

>  <Reference>
1. Jonsson Fagerlund M, et al. Anesthesiology. 2009 Jun;110(6):1244-52.

$$$$
T2393
  Mrv1561503291623562D          

 21 23  0  0  1  0            999 V2000
    0.0000   -1.6500    0.0000 C   0  0  1  0  0  0  0  0  0  0  0  0
    0.7145   -1.2375    0.0000 C   0  0  0  0  0  0  0  0  0  0  0  0
    0.7145   -0.4125    0.0000 C   0  0  0  0  0  0  0  0  0  0  0  0
   -0.0000    0.0000    0.0000 N   0  0  0  0  0  0  0  0  0  0  0  0
   -0.7145   -0.4125    0.0000 C   0  0  0  0  0  0  0  0  0  0  0  0
   -0.7145   -1.2375    0.0000 O   0  0  0  0  0  0  0  0  0  0  0  0
   -1.4289   -0.0000    0.0000 O   0  0  0  0  0  0  0  0  0  0  0  0
    1.4289    0.0000    0.0000 C   0  0  0  0  0  0  0  0  0  0  0  0
    2.1434   -0.4125    0.0000 C   0  0  0  0  0  0  0  0  0  0  0  0
    2.1434   -1.2375    0.0000 C   0  0  0  0  0  0  0  0  0  0  0  0
    1.4289   -1.6500    0.0000 C   0  0  0  0  0  0  0  0  0  0  0  0
    2.8579   -1.6500    0.0000 Cl  0  0  0  0  0  0  0  0  0  0  0  0
    0.3873   -2.3784    0.0000 C   0  0  0  0  0  0  0  0  0  0  0  0
    0.7746   -3.1069    0.0000 C   0  0  0  0  0  0  0  0  0  0  0  0
    1.1619   -3.8353    0.0000 C   0  0  0  0  0  0  0  0  0  0  0  0
    1.8616   -4.2725    0.0000 C   0  0  0  0  0  0  0  0  0  0  0  0
    1.1332   -4.6598    0.0000 C   0  0  0  0  0  0  0  0  0  0  0  0
   -0.3873   -2.3784    0.0000 C   0  0  0  0  0  0  0  0  0  0  0  0
   -0.7746   -3.1069    0.0000 F   0  0  0  0  0  0  0  0  0  0  0  0
   -1.1157   -1.9911    0.0000 F   0  0  0  0  0  0  0  0  0  0  0  0
    0.3411   -2.7657    0.0000 F   0  0  0  0  0  0  0  0  0  0  0  0
  1  2  1  0  0  0  0
  2  3  2  0  0  0  0
  3  4  1  0  0  0  0
  4  5  1  0  0  0  0
  5  6  1  0  0  0  0
  1  6  1  0  0  0  0
  5  7  2  0  0  0  0
  3  8  1  0  0  0  0
  8  9  2  0  0  0  0
  9 10  1  0  0  0  0
 10 11  2  0  0  0  0
  2 11  1  0  0  0  0
 10 12  1  0  0  0  0
  1 13  1  6  0  0  0
 13 14  3  0  0  0  0
 14 15  1  0  0  0  0
 15 16  1  0  0  0  0
 16 17  1  0  0  0  0
 15 17  1  0  0  0  0
  1 18  1  1  0  0  0
 18 19  1  0  0  0  0
 18 20  1  0  0  0  0
 18 21  1  0  0  0  0
M  END
>  <Name>
Efavirenz 

>  <CAS>
154598-52-4

>  <Formula>
C14H9ClF3NO2

>  <MolWt>
315.68 

>  <Bioactivity>
Efavirenz is a non-nucleoside reverse transcriptase inhibitor (NNRTI).

>  <Pathways>
Microbiology & Virology

>  <Target>
AntiVirus

>  <Receptor>
NNRTIs; HIV

>  <Reference>
1. Held D.M., et al. J Biol Chem, 2006. 281(35): p. 25712-22.

$$$$
T0520
  Mrv1561503291623562D          

 30 33  0  0  0  0            999 V2000
   -0.7145   -0.4125    0.0000 C   0  0  0  0  0  0  0  0  0  0  0  0
   -0.0000    0.0000    0.0000 O   0  0  0  0  0  0  0  0  0  0  0  0
    0.7145   -0.4125    0.0000 C   0  0  0  0  0  0  0  0  0  0  0  0
    1.4289   -0.0000    0.0000 C   0  0  0  0  0  0  0  0  0  0  0  0
    2.1434   -0.4125    0.0000 C   0  0  0  0  0  0  0  0  0  0  0  0
    2.8579   -0.0000    0.0000 N   0  0  0  0  0  0  0  0  0  0  0  0
    3.5724   -0.4125    0.0000 C   0  0  0  0  0  0  0  0  0  0  0  0
    3.5724   -1.2375    0.0000 C   0  0  0  0  0  0  0  0  0  0  0  0
    2.8579   -1.6500    0.0000 C   0  0  0  0  0  0  0  0  0  0  0  0
    2.1434   -1.2375    0.0000 C   0  0  0  0  0  0  0  0  0  0  0  0
    1.4289   -1.6500    0.0000 C   0  0  0  0  0  0  0  0  0  0  0  0
    0.7145   -1.2375    0.0000 C   0  0  0  0  0  0  0  0  0  0  0  0
   -0.0000   -1.6500    0.0000 C   0  0  0  0  0  0  0  0  0  0  0  0
   -0.7145   -1.2375    0.0000 O   0  0  0  0  0  0  0  0  0  0  0  0
   -0.0000   -2.4750    0.0000 N   0  0  0  0  0  0  0  0  0  0  0  0
    2.8579   -2.4750    0.0000 O   0  0  0  0  0  0  0  0  0  0  0  0
    2.1434   -2.8875    0.0000 C   0  0  0  0  0  0  0  0  0  0  0  0
    2.1434   -3.7125    0.0000 C   0  0  0  0  0  0  0  0  0  0  0  0
    1.4289   -4.1250    0.0000 C   0  0  0  0  0  0  0  0  0  0  0  0
    0.7145   -3.7125    0.0000 C   0  0  0  0  0  0  0  0  0  0  0  0
    0.7145   -2.8875    0.0000 C   0  0  0  0  0  0  0  0  0  0  0  0
    1.4289   -2.4750    0.0000 C   0  0  0  0  0  0  0  0  0  0  0  0
   -0.0000   -4.1250    0.0000 N   0  0  0  0  0  0  0  0  0  0  0  0
   -0.7145   -3.7125    0.0000 C   0  0  0  0  0  0  0  0  0  0  0  0
   -0.7145   -2.8875    0.0000 O   0  0  0  0  0  0  0  0  0  0  0  0
   -1.4289   -4.1250    0.0000 N   0  0  0  0  0  0  0  0  0  0  0  0
   -1.4289   -4.9500    0.0000 C   0  0  0  0  0  0  0  0  0  0  0  0
   -1.0164   -5.6645    0.0000 C   0  0  0  0  0  0  0  0  0  0  0  0
   -1.8414   -5.6645    0.0000 C   0  0  0  0  0  0  0  0  0  0  0  0
    1.4289   -4.9500    0.0000 Cl  0  0  0  0  0  0  0  0  0  0  0  0
  1  2  1  0  0  0  0
  2  3  1  0  0  0  0
  3  4  2  0  0  0  0
  4  5  1  0  0  0  0
  5  6  2  0  0  0  0
  6  7  1  0  0  0  0
  7  8  2  0  0  0  0
  8  9  1  0  0  0  0
  9 10  2  0  0  0  0
  5 10  1  0  0  0  0
 10 11  1  0  0  0  0
 11 12  2  0  0  0  0
  3 12  1  0  0  0  0
 12 13  1  0  0  0  0
 13 14  2  0  0  0  0
 13 15  1  0  0  0  0
  9 16  1  0  0  0  0
 16 17  1  0  0  0  0
 17 18  2  0  0  0  0
 18 19  1  0  0  0  0
 19 20  2  0  0  0  0
 20 21  1  0  0  0  0
 21 22  2  0  0  0  0
 17 22  1  0  0  0  0
 20 23  1  0  0  0  0
 23 24  1  0  0  0  0
 24 25  2  0  0  0  0
 24 26  1  0  0  0  0
 26 27  1  0  0  0  0
 27 28  1  0  0  0  0
 28 29  1  0  0  0  0
 27 29  1  0  0  0  0
 19 30  1  0  0  0  0
M  END
>  <Name>
Lenvatinib (E7080)

>  <CAS>
417716-92-8

>  <Formula>
C21H19ClN4O4

>  <MolWt>
426.85 

>  <Bioactivity>
Lenvatinib (E7080) is a multi-target inhibitor, mostly for VEGFR2(KDR)/VEGFR3(Flt-4) with IC50 of 4 nM/5.2 nM, less potent against VEGFR1/Flt-1, ~10-fold more selective for VEGFR2/3 against FGFR1, PDGFR?/? in cell-free assays. Phase 3.

>  <Pathways>
Tyrosine Kinase/Adaptors

>  <Target>
VEGFR inhibitor

>  <Receptor>
VEGFR2/KDR;VEGFR3/FLT4;VEGFR1/FLT1;PDGFR?

>  <Reference>
1. Matsui J, et al. Int J Cancer. 2008, 122(3), 664-671.

$$$$
T2410
  Mrv1561503291623562D          

  8  8  0  0  0  0            999 V2000
    0.5678    1.1143    0.0000 Pt  0  2  0  0  0  0  0  0  0  0  0  0
   -0.0997    0.6294    0.0000 O   0  0  0  0  0  0  0  0  0  0  0  0
    0.1553   -0.1553    0.0000 C   0  0  0  0  0  0  0  0  0  0  0  0
    0.9803   -0.1553    0.0000 C   0  0  0  0  0  0  0  0  0  0  0  0
    1.2352    0.6294    0.0000 O   0  0  0  0  0  0  0  0  0  0  0  0
    1.4652   -0.8227    0.0000 O   0  0  0  0  0  0  0  0  0  0  0  0
    0.0278    2.0726    0.0000 N   0  5  0  0  0  0  0  0  0  0  0  0
    1.1078    2.0726    0.0000 N   0  5  0  0  0  0  0  0  0  0  0  0
  2  1  8  0  0  0  0
  2  3  1  0  0  0  0
  3  4  1  0  0  0  0
  4  5  1  0  0  0  0
  5  1  8  0  0  0  0
  4  6  2  0  0  0  0
  7  1  8  0  0  0  0
  8  1  8  0  0  0  0
M  CHG  3   1   2   7  -1   8  -1
M  STY  4   1 DAT   2 DAT   3 DAT   4 DAT
M  SAL   1  2   2   1
M  SDT   1 MRV_COORDINATE_BOND_TYPE                              
M  SDD   1     0.0000    0.0000    DR    ALL  0       0  
M  SED   1 1
M  SAL   2  2   5   1
M  SDT   2 MRV_COORDINATE_BOND_TYPE                              
M  SDD   2     0.0000    0.0000    DR    ALL  0       0  
M  SED   2 5
M  SAL   3  2   7   1
M  SDT   3 MRV_COORDINATE_BOND_TYPE                              
M  SDD   3     0.0000    0.0000    DR    ALL  0       0  
M  SED   3 7
M  SAL   4  2   8   1
M  SDT   4 MRV_COORDINATE_BOND_TYPE                              
M  SDD   4     0.0000    0.0000    DR    ALL  0       0  
M  SED   4 8
M  END
>  <Name>
Nedaplatin

>  <CAS>
95734-82-0

>  <Formula>
C2H8N2O3Pt

>  <MolWt>
303.18 

>  <Bioactivity>
Nedaplatin is a derivative of cisplatin and DNA damage agent for tumor colony forming units with IC50 of 94 ?M.

>  <Pathways>
DNA Damage/DNA Repair

>  <Target>
DNA/RNA Synthesis inhibitor

>  <Receptor>
DNA Synthesis

>  <Reference>
1. Alberts DS, et al. Cancer Chemother Pharmacol, 1997, 39(6), 493-497.

$$$$
112809-51-5
  Mrv1561503291623562D          

 22 24  0  0  0  0            999 V2000
    1.3222    0.7634    0.0000 C   0  0  0  0  0  0  0  0  0  0  0  0
    1.3222   -0.0616    0.0000 C   0  0  0  0  0  0  0  0  0  0  0  0
    2.0367   -0.4741    0.0000 C   0  0  0  0  0  0  0  0  0  0  0  0
    2.7512   -0.0616    0.0000 C   0  0  0  0  0  0  0  0  0  0  0  0
    2.7512    0.7634    0.0000 C   0  0  0  0  0  0  0  0  0  0  0  0
    3.4656    1.1759    0.0000 C   0  0  0  0  0  0  0  0  0  0  0  0
    4.1801    0.7634    0.0000 C   0  0  0  0  0  0  0  0  0  0  0  0
    4.8946    1.1759    0.0000 C   0  0  0  0  0  0  0  0  0  0  0  0
    5.6091    1.5884    0.0000 N   0  0  0  0  0  0  0  0  0  0  0  0
    4.1801   -0.0616    0.0000 C   0  0  0  0  0  0  0  0  0  0  0  0
    3.4656   -0.4741    0.0000 C   0  0  0  0  0  0  0  0  0  0  0  0
    2.0367   -1.2991    0.0000 N   0  0  0  0  0  0  0  0  0  0  0  0
    2.7041   -1.7840    0.0000 C   0  0  0  0  0  0  0  0  0  0  0  0
    2.4492   -2.5687    0.0000 N   0  0  0  0  0  0  0  0  0  0  0  0
    1.6242   -2.5687    0.0000 C   0  0  0  0  0  0  0  0  0  0  0  0
    1.3693   -1.7840    0.0000 N   0  0  0  0  0  0  0  0  0  0  0  0
    0.6078   -0.4741    0.0000 C   0  0  0  0  0  0  0  0  0  0  0  0
   -0.1067   -0.0616    0.0000 C   0  0  0  0  0  0  0  0  0  0  0  0
   -0.1067    0.7634    0.0000 C   0  0  0  0  0  0  0  0  0  0  0  0
    0.6078    1.1759    0.0000 C   0  0  0  0  0  0  0  0  0  0  0  0
   -0.8212    1.1759    0.0000 C   0  0  0  0  0  0  0  0  0  0  0  0
   -1.5356    1.5884    0.0000 N   0  0  0  0  0  0  0  0  0  0  0  0
  1  2  2  0  0  0  0
  2  3  1  0  0  0  0
  3  4  1  0  0  0  0
  4  5  2  0  0  0  0
  5  6  1  0  0  0  0
  6  7  2  0  0  0  0
  7  8  1  0  0  0  0
  8  9  3  0  0  0  0
  7 10  1  0  0  0  0
 10 11  2  0  0  0  0
  4 11  1  0  0  0  0
  3 12  1  0  0  0  0
 12 13  1  0  0  0  0
 13 14  2  0  0  0  0
 14 15  1  0  0  0  0
 15 16  2  0  0  0  0
 12 16  1  0  0  0  0
  2 17  1  0  0  0  0
 17 18  2  0  0  0  0
 18 19  1  0  0  0  0
 19 20  2  0  0  0  0
  1 20  1  0  0  0  0
 19 21  1  0  0  0  0
 21 22  3  0  0  0  0
M  END
>  <Name>
Letrozole

>  <CAS>
112809-51-5

>  <Formula>
C17H11N5

>  <MolWt>
285.30 

>  <Bioactivity>
Letrozole (INN, trade name Femara®) is an oral non-steroidal aromatase inhibitor that has been introduced for the adjuvant treatment of hormonally-responsive breast cancer Estrogens are produced by the conversion of androgens through the activity of the aromatase enzyme. Letrozole blocks production of estrogens in this way by competitive, reversible binding to the heme of its cytochrome P450 unit. The action is specific, and letrozole does not reduce production of mineralo- or corticosteroids. In contrast, the antiestrogenic action of tamoxifen, the major medical therapy prior to the arrival of aromatase inhibitors, is due to its interfering with the estrogen receptor, rather than inhibiting estrogen production. Letrozole is approved by the United States Food and Drug Administration (FDA) for the treatment of local or metastatic breast cancer that is hormone receptor positive or has an unknown receptor status in postmenopausal women. Side effects include signs and symptoms of hypoestrogenism. There is concern that long term use may lead to osteoporosis, which is why prescriptions of Letrozole are often accompanied by prescriptions of osteoporosis-fighting medication such as Fosamax. Letrozole has shown to reduce estrogen levels by 98 percent while raising testosterone levels. The anti-estrogen action of letrozole is preferred by athletes and bodybuilders for use during a steroid cycle to reduce bloating due to excess water retention and prevent the formation of gynecomastia related breast tissue that is a side effect of some anabolic steroids. Usage above 2.5 mg/day is known to potentially temporarily kill sex drive. Above 5mg/day for extended periods may cause kidney problems. Letrozole has also been shown to delay the fusing of the growth plates in adolescents. This may boost the effectiveness of growth hormone, and thus Letrozole is used to treat adolescents and children with short stature.


>  <Pathways>
Endocrinology/ Hormones

>  <Target>
Aromatase Inhibitor

>  <Receptor>
Aromatase

>  <Reference>
1. Haynes BP, et al. J Steroid Biochem Mol Biol, 2003, 87(1), 35-45.

$$$$
508233-74-7
  Mrv1561503291623562D          

 21 23  0  0  0  0            999 V2000
    3.5724   -0.4125    0.0000 C   0  0  0  0  0  0  0  0  0  0  0  0
    3.5724   -1.2375    0.0000 C   0  0  0  0  0  0  0  0  0  0  0  0
    4.2868   -1.6500    0.0000 C   0  0  0  0  0  0  0  0  0  0  0  0
    4.2868   -2.4750    0.0000 C   0  0  0  0  0  0  0  0  0  0  0  0
    3.5724   -2.8875    0.0000 C   0  0  0  0  0  0  0  0  0  0  0  0
    2.8579   -2.4750    0.0000 C   0  0  0  0  0  0  0  0  0  0  0  0
    2.8579   -1.6500    0.0000 C   0  0  0  0  0  0  0  0  0  0  0  0
    3.5724   -3.7125    0.0000 S   0  0  0  0  0  0  0  0  0  0  0  0
    4.2868   -4.1250    0.0000 C   0  0  0  0  0  0  0  0  0  0  0  0
    5.0013   -3.7125    0.0000 C   0  0  0  0  0  0  0  0  0  0  0  0
    5.7158   -4.1250    0.0000 C   0  0  0  0  0  0  0  0  0  0  0  0
    5.7158   -4.9500    0.0000 C   0  0  0  0  0  0  0  0  0  0  0  0
    5.0013   -5.3625    0.0000 C   0  0  0  0  0  0  0  0  0  0  0  0
    4.2868   -4.9500    0.0000 C   0  0  0  0  0  0  0  0  0  0  0  0
    3.5724   -5.3625    0.0000 N   0  0  0  0  0  0  0  0  0  0  0  0
    3.5724   -6.1875    0.0000 C   0  0  0  0  0  0  0  0  0  0  0  0
    2.8579   -6.6000    0.0000 C   0  0  0  0  0  0  0  0  0  0  0  0
    2.1434   -6.1875    0.0000 N   0  0  0  0  0  0  0  0  0  0  0  0
    2.1434   -5.3625    0.0000 C   0  0  0  0  0  0  0  0  0  0  0  0
    2.8579   -4.9500    0.0000 C   0  0  0  0  0  0  0  0  0  0  0  0
    5.0013   -2.8875    0.0000 C   0  0  0  0  0  0  0  0  0  0  0  0
  1  2  1  0  0  0  0
  2  3  2  0  0  0  0
  3  4  1  0  0  0  0
  4  5  2  0  0  0  0
  5  6  1  0  0  0  0
  6  7  2  0  0  0  0
  2  7  1  0  0  0  0
  5  8  1  0  0  0  0
  8  9  1  0  0  0  0
  9 10  2  0  0  0  0
 10 11  1  0  0  0  0
 11 12  2  0  0  0  0
 12 13  1  0  0  0  0
 13 14  2  0  0  0  0
  9 14  1  0  0  0  0
 14 15  1  0  0  0  0
 15 16  1  0  0  0  0
 16 17  1  0  0  0  0
 17 18  1  0  0  0  0
 18 19  1  0  0  0  0
 19 20  1  0  0  0  0
 15 20  1  0  0  0  0
  4 21  1  0  0  0  0
M  END
>  <Name>
Vortioxetine

>  <CAS>
508233-74-7

>  <Formula>
C18H22N2S

>  <MolWt>
298.45 

>  <Bioactivity>
Vortioxetine (Lu AA21004) is a multimodal serotonergic agent, inhibits 5-HT1A, 5-HT1B, 5-HT3A, 5-HT7 receptor and SERT with IC50 of 15 nM, 33 nM, 3.7 nM, 19 nM and 1.6 nM, respectively.

>  <Pathways>
Neuroscience

>  <Target>
5-HT Receptor modulator

>  <Receptor>
5-HT1A, 5-HT1B, 5-HT3A, 5-HT7 receptor, SERT 

>  <Reference>
1. Bang-Andersen B, et al. J Med Chem, 2011, 54(9), 3206-3221.

$$$$
T1639
  Mrv1561503291623562D          

 22 24  0  0  0  0            999 V2000
    3.5724   -0.4125    0.0000 C   0  0  0  0  0  0  0  0  0  0  0  0
    2.8579    0.0000    0.0000 C   0  0  0  0  0  0  0  0  0  0  0  0
    2.8579    0.8250    0.0000 C   0  0  0  0  0  0  0  0  0  0  0  0
    3.5724    1.2375    0.0000 N   0  0  0  0  0  0  0  0  0  0  0  0
    4.2868    0.8250    0.0000 C   0  0  0  0  0  0  0  0  0  0  0  0
    4.2868    0.0000    0.0000 C   0  0  0  0  0  0  0  0  0  0  0  0
    5.0013   -0.4125    0.0000 C   0  0  0  0  0  0  0  0  0  0  0  0
    5.7158   -0.0000    0.0000 O   0  0  0  0  0  0  0  0  0  0  0  0
    5.0013   -1.2375    0.0000 O   0  0  0  0  0  0  0  0  0  0  0  0
    5.0013    1.2375    0.0000 N   0  0  0  0  0  0  0  0  0  0  0  0
    2.1434    1.2375    0.0000 O   0  0  0  0  0  0  0  0  0  0  0  0
    1.4289    0.8250    0.0000 C   0  0  0  0  0  0  0  0  0  0  0  0
    1.4289   -0.0000    0.0000 C   0  0  0  0  0  0  0  0  0  0  0  0
    2.1434   -0.4125    0.0000 C   0  0  0  0  0  0  0  0  0  0  0  0
    2.1434   -1.2375    0.0000 O   0  0  0  0  0  0  0  0  0  0  0  0
    0.7145   -0.4125    0.0000 C   0  0  0  0  0  0  0  0  0  0  0  0
   -0.0000    0.0000    0.0000 C   0  0  0  0  0  0  0  0  0  0  0  0
   -0.7145   -0.4125    0.0000 C   0  0  0  0  0  0  0  0  0  0  0  0
   -0.7145   -1.2375    0.0000 C   0  0  0  0  0  0  0  0  0  0  0  0
   -1.4289    0.0000    0.0000 C   0  0  0  0  0  0  0  0  0  0  0  0
   -0.0000    0.8250    0.0000 C   0  0  0  0  0  0  0  0  0  0  0  0
    0.7145    1.2375    0.0000 C   0  0  0  0  0  0  0  0  0  0  0  0
  1  2  2  0  0  0  0
  2  3  1  0  0  0  0
  3  4  2  0  0  0  0
  4  5  1  0  0  0  0
  5  6  2  0  0  0  0
  1  6  1  0  0  0  0
  6  7  1  0  0  0  0
  7  8  1  0  0  0  0
  7  9  2  0  0  0  0
  5 10  1  0  0  0  0
  3 11  1  0  0  0  0
 11 12  1  0  0  0  0
 12 13  2  0  0  0  0
 13 14  1  0  0  0  0
  2 14  1  0  0  0  0
 14 15  2  0  0  0  0
 13 16  1  0  0  0  0
 16 17  2  0  0  0  0
 17 18  1  0  0  0  0
 18 19  1  0  0  0  0
 18 20  1  0  0  0  0
 17 21  1  0  0  0  0
 21 22  2  0  0  0  0
 12 22  1  0  0  0  0
M  END
>  <Name>
Amlexanox

>  <CAS>
68302-57-8

>  <Formula>
C15H14N2O4

>  <MolWt>
298.29 

>  <Bioactivity>
Amlexanox is an antiallergic drug, clinically effective for atopic diseases, especially allergic asthma and rhinitis. Amlexanox as a topical paste is a well tolerated treatment of recurrent aphthous ulcers. Recurrent aphthous ulcer (RAU) is the most prevalent oral mucosal disease in humans, estimated to affect between 5% and 50% of the general population.


>  <Pathways>
Immunology/Inflammation

>  <Target>
Protein S100 antagonist; FGFR inhibitor; IL antagonist

>  <Receptor>
Protein S100;FGFR1;IL-3

>  <Reference>
1. Shishibori T, et al. Biochem J. 1999 Mar 15;338 ( Pt 3):583-9.

$$$$
147526-32-7
  Mrv1561503291623562D          

 63 68  0  0  1  0            999 V2000
    1.3010   -0.0223    0.0000 C   0  0  0  0  0  0  0  0  0  0  0  0
    1.3010   -0.8473    0.0000 O   0  0  0  0  0  0  0  0  0  0  0  0
    0.5865    0.3902    0.0000 C   0  0  0  0  0  0  0  0  0  0  0  0
   -0.1280   -0.0223    0.0000 C   0  0  0  0  0  0  0  0  0  0  0  0
   -0.8425    0.3902    0.0000 C   0  0  0  0  0  0  0  0  0  0  0  0
   -0.8425    1.2152    0.0000 C   0  0  0  0  0  0  0  0  0  0  0  0
   -1.5569    1.6277    0.0000 N   0  0  0  0  0  0  0  0  0  0  0  0
   -2.2714    1.2152    0.0000 C   0  0  0  0  0  0  0  0  0  0  0  0
   -2.2714    0.3902    0.0000 C   0  0  0  0  0  0  0  0  0  0  0  0
   -1.5569   -0.0223    0.0000 C   0  0  0  0  0  0  0  0  0  0  0  0
   -1.5569   -0.8473    0.0000 C   0  0  0  0  0  0  0  0  0  0  0  0
   -0.8425   -1.2598    0.0000 C   0  0  0  0  0  0  0  0  0  0  0  0
   -0.8425   -2.0848    0.0000 C   0  0  0  0  0  0  0  0  0  0  0  0
   -1.5569   -2.4973    0.0000 C   0  0  0  0  0  0  0  0  0  0  0  0
   -1.5569   -3.3223    0.0000 F   0  0  0  0  0  0  0  0  0  0  0  0
   -2.2714   -2.0848    0.0000 C   0  0  0  0  0  0  0  0  0  0  0  0
   -2.2714   -1.2598    0.0000 C   0  0  0  0  0  0  0  0  0  0  0  0
   -2.9859   -0.0223    0.0000 C   0  0  0  0  0  0  0  0  0  0  0  0
   -3.7003    0.3902    0.0000 C   0  0  0  0  0  0  0  0  0  0  0  0
   -3.7003    1.2152    0.0000 C   0  0  0  0  0  0  0  0  0  0  0  0
   -2.9859    1.6277    0.0000 C   0  0  0  0  0  0  0  0  0  0  0  0
   -0.1280    1.6277    0.0000 C   0  0  0  0  0  0  0  0  0  0  0  0
    0.2845    2.3421    0.0000 C   0  0  0  0  0  0  0  0  0  0  0  0
    0.6970    1.6277    0.0000 C   0  0  0  0  0  0  0  0  0  0  0  0
    2.0154    0.3902    0.0000 C   0  0  0  0  0  0  0  0  0  0  0  0
    2.7299   -0.0223    0.0000 C   0  0  0  0  0  0  0  0  0  0  0  0
    2.7299   -0.8473    0.0000 O   0  0  0  0  0  0  0  0  0  0  0  0
    3.4444    0.3902    0.0000 C   0  0  0  0  0  0  0  0  0  0  0  0
    4.1588   -0.0223    0.0000 C   0  0  0  0  0  0  0  0  0  0  0  0
    4.8733    0.3902    0.0000 O   0  5  0  0  0  0  0  0  0  0  0  0
    4.1588   -0.8473    0.0000 O   0  0  0  0  0  0  0  0  0  0  0  0
   12.4748    0.0036    0.0000 C   0  0  0  0  0  0  0  0  0  0  0  0
   12.4748   -0.8214    0.0000 O   0  0  0  0  0  0  0  0  0  0  0  0
   11.7603    0.4161    0.0000 C   0  0  0  0  0  0  0  0  0  0  0  0
   11.0459    0.0036    0.0000 C   0  0  0  0  0  0  0  0  0  0  0  0
   10.3314    0.4161    0.0000 C   0  0  0  0  0  0  0  0  0  0  0  0
   10.3314    1.2411    0.0000 C   0  0  0  0  0  0  0  0  0  0  0  0
    9.6169    1.6536    0.0000 N   0  0  0  0  0  0  0  0  0  0  0  0
    8.9024    1.2411    0.0000 C   0  0  0  0  0  0  0  0  0  0  0  0
    8.9024    0.4161    0.0000 C   0  0  0  0  0  0  0  0  0  0  0  0
    9.6169    0.0036    0.0000 C   0  0  0  0  0  0  0  0  0  0  0  0
    9.6169   -0.8214    0.0000 C   0  0  0  0  0  0  0  0  0  0  0  0
   10.3314   -1.2339    0.0000 C   0  0  0  0  0  0  0  0  0  0  0  0
   10.3314   -2.0589    0.0000 C   0  0  0  0  0  0  0  0  0  0  0  0
    9.6169   -2.4714    0.0000 C   0  0  0  0  0  0  0  0  0  0  0  0
    9.6169   -3.2964    0.0000 F   0  0  0  0  0  0  0  0  0  0  0  0
    8.9024   -2.0589    0.0000 C   0  0  0  0  0  0  0  0  0  0  0  0
    8.9024   -1.2339    0.0000 C   0  0  0  0  0  0  0  0  0  0  0  0
    8.1880    0.0036    0.0000 C   0  0  0  0  0  0  0  0  0  0  0  0
    7.4735    0.4161    0.0000 C   0  0  0  0  0  0  0  0  0  0  0  0
    7.4735    1.2411    0.0000 C   0  0  0  0  0  0  0  0  0  0  0  0
    8.1880    1.6536    0.0000 C   0  0  0  0  0  0  0  0  0  0  0  0
   11.0459    1.6536    0.0000 C   0  0  0  0  0  0  0  0  0  0  0  0
   11.4584    2.3680    0.0000 C   0  0  0  0  0  0  0  0  0  0  0  0
   11.8709    1.6536    0.0000 C   0  0  0  0  0  0  0  0  0  0  0  0
   13.1893    0.4161    0.0000 C   0  0  0  0  0  0  0  0  0  0  0  0
   13.9037    0.0036    0.0000 C   0  0  0  0  0  0  0  0  0  0  0  0
   13.9037   -0.8214    0.0000 O   0  0  0  0  0  0  0  0  0  0  0  0
   14.6182    0.4161    0.0000 C   0  0  0  0  0  0  0  0  0  0  0  0
   15.3327    0.0036    0.0000 C   0  0  0  0  0  0  0  0  0  0  0  0
   16.0472    0.4161    0.0000 O   0  5  0  0  0  0  0  0  0  0  0  0
   15.3327   -0.8214    0.0000 O   0  0  0  0  0  0  0  0  0  0  0  0
    5.5878    0.8027    0.0000 Ca  0  2  0  0  0  0  0  0  0  0  0  0
  1  2  1  0  0  0  0
  1  3  1  0  0  0  0
  3  4  2  0  0  0  0
  4  5  1  0  0  0  0
  5  6  2  0  0  0  0
  6  7  1  0  0  0  0
  7  8  2  0  0  0  0
  8  9  1  0  0  0  0
  9 10  2  0  0  0  0
  5 10  1  0  0  0  0
 10 11  1  0  0  0  0
 11 12  2  0  0  0  0
 12 13  1  0  0  0  0
 13 14  2  0  0  0  0
 14 15  1  0  0  0  0
 14 16  1  0  0  0  0
 16 17  2  0  0  0  0
 11 17  1  0  0  0  0
  9 18  1  0  0  0  0
 18 19  2  0  0  0  0
 19 20  1  0  0  0  0
 20 21  2  0  0  0  0
  8 21  1  0  0  0  0
  6 22  1  0  0  0  0
 22 23  1  0  0  0  0
 23 24  1  0  0  0  0
 22 24  1  0  0  0  0
  1 25  1  0  0  0  0
 25 26  1  0  0  0  0
 26 27  1  0  0  0  0
 26 28  1  0  0  0  0
 28 29  1  0  0  0  0
 29 30  1  0  0  0  0
 29 31  2  0  0  0  0
 32 33  1  0  0  0  0
 32 34  1  0  0  0  0
 34 35  2  0  0  0  0
 35 36  1  0  0  0  0
 36 37  2  0  0  0  0
 37 38  1  0  0  0  0
 38 39  2  0  0  0  0
 39 40  1  0  0  0  0
 40 41  2  0  0  0  0
 36 41  1  0  0  0  0
 41 42  1  0  0  0  0
 42 43  2  0  0  0  0
 43 44  1  0  0  0  0
 44 45  2  0  0  0  0
 45 46  1  0  0  0  0
 45 47  1  0  0  0  0
 47 48  2  0  0  0  0
 42 48  1  0  0  0  0
 40 49  1  0  0  0  0
 49 50  2  0  0  0  0
 50 51  1  0  0  0  0
 51 52  2  0  0  0  0
 39 52  1  0  0  0  0
 37 53  1  0  0  0  0
 53 54  1  0  0  0  0
 54 55  1  0  0  0  0
 53 55  1  0  0  0  0
 32 56  1  0  0  0  0
 56 57  1  0  0  0  0
 57 58  1  0  0  0  0
 57 59  1  0  0  0  0
 59 60  1  0  0  0  0
 60 61  1  0  0  0  0
 60 62  2  0  0  0  0
M  CHG  3  30  -1  61  -1  63   2
M  END
>  <Name>
Pitavastatin calcium

>  <CAS>
147526-32-7

>  <Formula>
C50H46CaF2N2O8

>  <MolWt>
880.98 

>  <Bioactivity>
Pitavastatin calcium is a novel member of the medication class of statins.

>  <Pathways>
Metabolism

>  <Target>
Cholesterol esters

>  <Receptor>
cholesterol esters

>  <Reference>
1. Ahmad H, et al. Cardiol Rev, 2010, 18(5):264-267.

$$$$
78415-72-2
  Mrv1561503291623562D          

 16 17  0  0  0  0            999 V2000
    0.0000   -1.6500    0.0000 C   0  0  0  0  0  0  0  0  0  0  0  0
    0.7145   -1.2375    0.0000 C   0  0  0  0  0  0  0  0  0  0  0  0
    0.7145   -0.4125    0.0000 C   0  0  0  0  0  0  0  0  0  0  0  0
    0.0000    0.0000    0.0000 C   0  0  0  0  0  0  0  0  0  0  0  0
    0.0000    0.8250    0.0000 N   0  0  0  0  0  0  0  0  0  0  0  0
    0.7145    1.2375    0.0000 C   0  0  0  0  0  0  0  0  0  0  0  0
    1.4289    0.8250    0.0000 C   0  0  0  0  0  0  0  0  0  0  0  0
    1.4289   -0.0000    0.0000 C   0  0  0  0  0  0  0  0  0  0  0  0
    2.1434    1.2375    0.0000 C   0  0  0  0  0  0  0  0  0  0  0  0
    2.8579    1.6500    0.0000 N   0  0  0  0  0  0  0  0  0  0  0  0
    0.7145    2.0625    0.0000 O   0  0  0  0  0  0  0  0  0  0  0  0
   -0.7145   -0.4125    0.0000 C   0  0  0  0  0  0  0  0  0  0  0  0
    1.4289   -1.6500    0.0000 C   0  0  0  0  0  0  0  0  0  0  0  0
    1.4289   -2.4750    0.0000 C   0  0  0  0  0  0  0  0  0  0  0  0
    0.7145   -2.8875    0.0000 N   0  0  0  0  0  0  0  0  0  0  0  0
   -0.0000   -2.4750    0.0000 C   0  0  0  0  0  0  0  0  0  0  0  0
  1  2  2  0  0  0  0
  2  3  1  0  0  0  0
  3  4  2  0  0  0  0
  4  5  1  0  0  0  0
  5  6  1  0  0  0  0
  6  7  1  0  0  0  0
  7  8  2  0  0  0  0
  3  8  1  0  0  0  0
  7  9  1  0  0  0  0
  9 10  3  0  0  0  0
  6 11  2  0  0  0  0
  4 12  1  0  0  0  0
  2 13  1  0  0  0  0
 13 14  2  0  0  0  0
 14 15  1  0  0  0  0
 15 16  2  0  0  0  0
  1 16  1  0  0  0  0
M  END
>  <Name>
Milrinone

>  <CAS>
78415-72-2

>  <Formula>
C12H9N3O

>  <MolWt>
211.22 

>  <Bioactivity>
A positive inotropic cardiotonic agent with vasodilator properties. It inhibits cAMP phosphodiesterase type 3 activity in myocardium and vascular smooth muscle. Milrinone is a derivative of amrinone and has 20-30 times the inotropic potency of amrinone.


>  <Pathways>
Metabolism

>  <Target>
PDE inhibitor

>  <Receptor>
PDE

>  <Reference>
1. Cone J, et al. J Cardiovasc Pharmacol, 1999, 34(4), 497-504.

$$$$
T1583
  Mrv1561503291623562D          

 19 19  0  0  0  0            999 V2000
   -2.1434   -0.4125    0.0000 C   0  0  0  0  0  0  0  0  0  0  0  0
   -2.1434   -1.2375    0.0000 C   0  0  0  0  0  0  0  0  0  0  0  0
   -1.4289   -1.6500    0.0000 N   0  0  0  0  0  0  0  0  0  0  0  0
   -0.7145   -1.2375    0.0000 C   0  0  0  0  0  0  0  0  0  0  0  0
   -0.7145   -0.4125    0.0000 O   0  0  0  0  0  0  0  0  0  0  0  0
   -0.0000   -1.6500    0.0000 C   0  0  0  0  0  0  0  0  0  0  0  0
    0.7145   -1.2375    0.0000 C   0  0  0  0  0  0  0  0  0  0  0  0
    1.4289   -1.6500    0.0000 C   0  0  0  0  0  0  0  0  0  0  0  0
    2.1434   -1.2375    0.0000 C   0  0  0  0  0  0  0  0  0  0  0  0
    2.8579   -1.6500    0.0000 C   0  0  0  0  0  0  0  0  0  0  0  0
    3.5724   -1.2375    0.0000 C   0  0  0  0  0  0  0  0  0  0  0  0
    4.2868   -1.6500    0.0000 C   0  0  0  0  0  0  0  0  0  0  0  0
    4.2868   -2.4750    0.0000 O   0  0  0  0  0  0  0  0  0  0  0  0
    5.0013   -1.2375    0.0000 N   0  0  0  0  0  0  0  0  0  0  0  0
    5.7158   -1.6500    0.0000 O   0  0  0  0  0  0  0  0  0  0  0  0
   -2.8579   -1.6500    0.0000 C   0  0  0  0  0  0  0  0  0  0  0  0
   -3.5724   -1.2375    0.0000 C   0  0  0  0  0  0  0  0  0  0  0  0
   -3.5724   -0.4125    0.0000 C   0  0  0  0  0  0  0  0  0  0  0  0
   -2.8579   -0.0000    0.0000 C   0  0  0  0  0  0  0  0  0  0  0  0
  1  2  2  0  0  0  0
  2  3  1  0  0  0  0
  3  4  1  0  0  0  0
  4  5  2  0  0  0  0
  4  6  1  0  0  0  0
  6  7  1  0  0  0  0
  7  8  1  0  0  0  0
  8  9  1  0  0  0  0
  9 10  1  0  0  0  0
 10 11  1  0  0  0  0
 11 12  1  0  0  0  0
 12 13  2  0  0  0  0
 12 14  1  0  0  0  0
 14 15  1  0  0  0  0
  2 16  1  0  0  0  0
 16 17  2  0  0  0  0
 17 18  1  0  0  0  0
 18 19  2  0  0  0  0
  1 19  1  0  0  0  0
M  END
>  <Name>
Vorinostat (SAHA, MK0683)

>  <CAS>
149647-78-9

>  <Formula>
C14H20N2O3

>  <MolWt>
264.32 

>  <Bioactivity>
Vorinostat (rINN) or suberoylanilide hydroxamic acid (SAHA), is a drug currently under investigation for the treatment of cutaneous T cell lymphoma (CTCL), a type of skin cancer, to be used when the disease persists, gets worse, or comes back during or after treatment with other medicines. It is the first in a new class of agents known as histone deacetylase inhibitors. A recent study suggested that vorinostat also possesses some activity against recurrent glioblastoma multiforme, resulting in a median overall survival of 5.7 months (compared to 4 - 4.4 months in earlier studies). Further brain tumor trials are planned in which vorinostat will be combined with other drugs. 


>  <Pathways>
Chromatin/Epigenetic

>  <Target>
HDAC inhibitor

>  <Receptor>
HDAC1, HDAC2, HDAC3, HDAC6, HDAC8

>  <Reference>
1. Xu WS, et al. Oncogene. 2007 Aug 13; 26(37): 5541-52. 

$$$$
T2384
  Mrv1561503291623562D          

 20 22  0  0  0  0            999 V2000
    0.7145   -0.4125    0.0000 C   0  0  0  0  0  0  0  0  0  0  0  0
    0.0000    0.0000    0.0000 C   0  0  0  0  0  0  0  0  0  0  0  0
    0.0000    0.8250    0.0000 C   0  0  0  0  0  0  0  0  0  0  0  0
    0.7145    1.2375    0.0000 C   0  0  0  0  0  0  0  0  0  0  0  0
    0.7145    2.0625    0.0000 N   0  0  0  0  0  0  0  0  0  0  0  0
    1.4289    0.8250    0.0000 C   0  0  0  0  0  0  0  0  0  0  0  0
    1.4289   -0.0000    0.0000 C   0  0  0  0  0  0  0  0  0  0  0  0
   -0.7846    1.0799    0.0000 C   0  0  0  0  0  0  0  0  0  0  0  0
   -1.0396    1.8646    0.0000 O   0  0  0  0  0  0  0  0  0  0  0  0
   -1.2695    0.4125    0.0000 N   0  0  0  0  0  0  0  0  0  0  0  0
   -0.7846   -0.2549    0.0000 C   0  0  0  0  0  0  0  0  0  0  0  0
   -1.0396   -1.0396    0.0000 O   0  0  0  0  0  0  0  0  0  0  0  0
   -2.0945    0.4125    0.0000 C   0  0  0  0  0  0  0  0  0  0  0  0
   -2.5070   -0.3020    0.0000 C   0  0  0  0  0  0  0  0  0  0  0  0
   -2.0945   -1.0164    0.0000 O   0  0  0  0  0  0  0  0  0  0  0  0
   -3.3320   -0.3020    0.0000 N   0  0  0  0  0  0  0  0  0  0  0  0
   -3.7445    0.4125    0.0000 C   0  0  0  0  0  0  0  0  0  0  0  0
   -4.5695    0.4125    0.0000 O   0  0  0  0  0  0  0  0  0  0  0  0
   -3.3320    1.1270    0.0000 C   0  0  0  0  0  0  0  0  0  0  0  0
   -2.5070    1.1270    0.0000 C   0  0  0  0  0  0  0  0  0  0  0  0
  1  2  2  0  0  0  0
  2  3  1  0  0  0  0
  3  4  2  0  0  0  0
  4  5  1  0  0  0  0
  4  6  1  0  0  0  0
  6  7  2  0  0  0  0
  1  7  1  0  0  0  0
  3  8  1  0  0  0  0
  8  9  2  0  0  0  0
  8 10  1  0  0  0  0
 10 11  1  0  0  0  0
  2 11  1  0  0  0  0
 11 12  2  0  0  0  0
 10 13  1  0  0  0  0
 13 14  1  0  0  0  0
 14 15  2  0  0  0  0
 14 16  1  0  0  0  0
 16 17  1  0  0  0  0
 17 18  2  0  0  0  0
 17 19  1  0  0  0  0
 19 20  1  0  0  0  0
 13 20  1  0  0  0  0
M  END
>  <Name>
Pomalidomide

>  <CAS>
19171-19-8

>  <Formula>
C13H11N3O4

>  <MolWt>
273.24 

>  <Bioactivity>
Pomalidomide inhibits LPS-induced TNF-? release with IC50 of 13 nM in PBMCs.

>  <Pathways>
Apoptosis

>  <Target>
TNF-alpha inhibitor

>  <Receptor>
TNF-?

>  <Reference>
1. Muller GW, et al. Bioorg Med Chem Lett, 1999, 9(11), 1625-1630.

$$$$
596-51-0
  Mrv1561503291623562D          

 24 25  0  0  0  0            999 V2000
    1.6948   -1.0978    0.0000 C   0  0  0  0  0  0  0  0  0  0  0  0
    2.1797   -1.7653    0.0000 C   0  0  0  0  0  0  0  0  0  0  0  0
    1.8442   -2.5189    0.0000 C   0  0  0  0  0  0  0  0  0  0  0  0
    1.0237   -2.6052    0.0000 C   0  0  0  0  0  0  0  0  0  0  0  0
    0.5388   -1.9377    0.0000 C   0  0  0  0  0  0  0  0  0  0  0  0
    0.8743   -1.1841    0.0000 C   0  0  0  0  0  0  0  0  0  0  0  0
    0.3894   -0.5166    0.0000 C   0  0  0  0  0  0  0  0  0  0  0  0
   -0.0955    0.1508    0.0000 C   0  0  0  0  0  0  0  0  0  0  0  0
    0.2401    0.9045    0.0000 O   0  0  0  0  0  0  0  0  0  0  0  0
   -0.2449    1.5719    0.0000 C   0  0  0  0  0  0  0  0  0  0  0  0
   -1.0699    1.5719    0.0000 C   0  0  0  0  0  0  0  0  0  0  0  0
   -1.3248    2.3566    0.0000 C   0  0  0  0  0  0  0  0  0  0  0  0
   -0.6574    2.8415    0.0000 N   0  3  0  0  0  0  0  0  0  0  0  0
   -1.2094    3.4546    0.0000 C   0  0  0  0  0  0  0  0  0  0  0  0
   -0.1053    3.4546    0.0000 C   0  0  0  0  0  0  0  0  0  0  0  0
    0.0101    2.3566    0.0000 C   0  0  0  0  0  0  0  0  0  0  0  0
   -0.9160    0.0646    0.0000 O   0  0  0  0  0  0  0  0  0  0  0  0
    1.0569   -0.0317    0.0000 O   0  0  0  0  0  0  0  0  0  0  0  0
   -0.2780   -1.0015    0.0000 C   0  0  0  0  0  0  0  0  0  0  0  0
   -0.2780   -1.8265    0.0000 C   0  0  0  0  0  0  0  0  0  0  0  0
   -1.0626   -2.0815    0.0000 C   0  0  0  0  0  0  0  0  0  0  0  0
   -1.5476   -1.4140    0.0000 C   0  0  0  0  0  0  0  0  0  0  0  0
   -1.0626   -0.7466    0.0000 C   0  0  0  0  0  0  0  0  0  0  0  0
    4.5369    0.0000    0.0000 Br  0  5  0  0  0  0  0  0  0  0  0  0
  1  2  2  0  0  0  0
  2  3  1  0  0  0  0
  3  4  2  0  0  0  0
  4  5  1  0  0  0  0
  5  6  2  0  0  0  0
  1  6  1  0  0  0  0
  6  7  1  0  0  0  0
  7  8  1  0  0  0  0
  8  9  1  0  0  0  0
  9 10  1  0  0  0  0
 10 11  1  0  0  0  0
 11 12  1  0  0  0  0
 12 13  1  0  0  0  0
 13 14  1  0  0  0  0
 13 15  1  0  0  0  0
 13 16  1  0  0  0  0
 10 16  1  0  0  0  0
  8 17  2  0  0  0  0
  7 18  1  0  0  0  0
  7 19  1  0  0  0  0
 19 20  1  0  0  0  0
 20 21  1  0  0  0  0
 21 22  1  0  0  0  0
 22 23  1  0  0  0  0
 19 23  1  0  0  0  0
M  CHG  2  13   1  24  -1
M  END
>  <Name>
Glycopyrrolate

>  <CAS>
596-51-0

>  <Formula>
C19H28BrNO3

>  <MolWt>
398.33 

>  <Bioactivity>
Glycopyrrolate(Glycopyrronium Br) is a muscarinic competitive antagonist used as an antispasmodic.

>  <Pathways>
Neuroscience

>  <Target>
AChR antagonist

>  <Receptor>
mAChR M1

>  <Reference>
1. Haddad E.B., et al. Br J Pharmacol, 1999. 127(2): p. 413-20.

$$$$
T0975
  Mrv1561503291623562D          

 19 19  0  0  0  0            999 V2000
   -1.4289   -4.1250    0.0000 C   0  0  0  0  0  0  0  0  0  0  0  0
   -0.7145   -3.7125    0.0000 C   0  0  0  0  0  0  0  0  0  0  0  0
   -0.7145   -2.8875    0.0000 N   0  0  0  0  0  0  0  0  0  0  0  0
   -1.4289   -2.4750    0.0000 C   0  0  0  0  0  0  0  0  0  0  0  0
   -1.4289   -1.6500    0.0000 C   0  0  0  0  0  0  0  0  0  0  0  0
   -2.1434   -1.2375    0.0000 Cl  0  0  0  0  0  0  0  0  0  0  0  0
   -0.0000   -2.4750    0.0000 C   0  0  0  0  0  0  0  0  0  0  0  0
   -0.0000   -1.6500    0.0000 C   0  0  0  0  0  0  0  0  0  0  0  0
    0.7145   -1.2375    0.0000 Cl  0  0  0  0  0  0  0  0  0  0  0  0
   -0.0000   -4.1250    0.0000 C   0  0  0  0  0  0  0  0  0  0  0  0
   -0.0000   -4.9500    0.0000 C   0  0  0  0  0  0  0  0  0  0  0  0
   -0.7145   -5.3625    0.0000 C   0  0  0  0  0  0  0  0  0  0  0  0
   -1.4289   -4.9500    0.0000 C   0  0  0  0  0  0  0  0  0  0  0  0
   -0.7145   -6.1875    0.0000 C   0  0  0  0  0  0  0  0  0  0  0  0
   -1.4289   -6.6000    0.0000 C   0  0  0  0  0  0  0  0  0  0  0  0
   -1.4289   -7.4250    0.0000 C   0  0  0  0  0  0  0  0  0  0  0  0
   -2.1434   -7.8375    0.0000 C   0  0  0  0  0  0  0  0  0  0  0  0
   -2.1434   -8.6625    0.0000 O   0  0  0  0  0  0  0  0  0  0  0  0
   -2.8579   -7.4250    0.0000 O   0  0  0  0  0  0  0  0  0  0  0  0
  1  2  2  0  0  0  0
  2  3  1  0  0  0  0
  3  4  1  0  0  0  0
  4  5  1  0  0  0  0
  5  6  1  0  0  0  0
  3  7  1  0  0  0  0
  7  8  1  0  0  0  0
  8  9  1  0  0  0  0
  2 10  1  0  0  0  0
 10 11  2  0  0  0  0
 11 12  1  0  0  0  0
 12 13  2  0  0  0  0
  1 13  1  0  0  0  0
 12 14  1  0  0  0  0
 14 15  1  0  0  0  0
 15 16  1  0  0  0  0
 16 17  1  0  0  0  0
 17 18  1  0  0  0  0
 17 19  2  0  0  0  0
M  END
>  <Name>
Chloroambucil

>  <CAS>
305-03-3

>  <Formula>
C14H19Cl2NO2

>  <MolWt>
304.22 

>  <Bioactivity>
A nitrogen mustard alkylating agent used as antineoplastic for chronic lymphocytic leukemia, Hodgkin's disease, and others. Although it is less toxic than most other nitrogen mustards, it has been listed as a known carcinogen in the Fourth Annual Report on Carcinogens (NTP 85-002, 1985). (Merck Index, 11th ed)


>  <Pathways>
DNA Damage/DNA Repair

>  <Target>
DNA Alkylating

>  <Receptor>
DNA

>  <Reference>
1. Kashiwazaki G, et al. Bioorg Med Chem. 2010 Apr 15;18(8):2887-93. 

$$$$
58-28-6
  Mrv1561503291623562D          

 22 22  0  0  0  0            999 V2000
    0.4125    0.0000    0.0000 H   0  3  0  0  0  0  0  0  0  0  0  0
    4.0430    1.4779    0.0000 C   0  0  0  0  0  0  0  0  0  0  0  0
    3.4382    2.0390    0.0000 C   0  0  0  0  0  0  0  0  0  0  0  0
    2.6499    1.7959    0.0000 C   0  0  0  0  0  0  0  0  0  0  0  0
    2.4663    0.9915    0.0000 C   0  0  0  0  0  0  0  0  0  0  0  0
    3.0710    0.4304    0.0000 C   0  0  0  0  0  0  0  0  0  0  0  0
    3.8594    0.6736    0.0000 C   0  0  0  0  0  0  0  0  0  0  0  0
    4.5410    0.2088    0.0000 N   0  0  0  0  0  0  0  0  0  0  0  0
    4.6027   -0.6139    0.0000 C   0  0  0  0  0  0  0  0  0  0  0  0
    3.9979   -1.1750    0.0000 C   0  0  0  0  0  0  0  0  0  0  0  0
    3.1821   -1.0520    0.0000 C   0  0  0  0  0  0  0  0  0  0  0  0
    2.7696   -0.3376    0.0000 C   0  0  0  0  0  0  0  0  0  0  0  0
    4.1815   -1.9793    0.0000 C   0  0  0  0  0  0  0  0  0  0  0  0
    4.9699   -2.2225    0.0000 C   0  0  0  0  0  0  0  0  0  0  0  0
    5.5746   -1.6614    0.0000 C   0  0  0  0  0  0  0  0  0  0  0  0
    5.3910   -0.8570    0.0000 C   0  0  0  0  0  0  0  0  0  0  0  0
    5.2555    0.6213    0.0000 C   0  0  0  0  0  0  0  0  0  0  0  0
    5.9700    0.2088    0.0000 C   0  0  0  0  0  0  0  0  0  0  0  0
    6.6845    0.6213    0.0000 C   0  0  0  0  0  0  0  0  0  0  0  0
    7.3989    0.2088    0.0000 N   0  0  0  0  0  0  0  0  0  0  0  0
    8.1134    0.6213    0.0000 C   0  0  0  0  0  0  0  0  0  0  0  0
   -0.4125    0.0000    0.0000 Cl  0  5  0  0  0  0  0  0  0  0  0  0
  2  3  2  0  0  0  0
  3  4  1  0  0  0  0
  4  5  2  0  0  0  0
  5  6  1  0  0  0  0
  6  7  2  0  0  0  0
  2  7  1  0  0  0  0
  7  8  1  0  0  0  0
  8  9  1  0  0  0  0
  9 10  2  0  0  0  0
 10 11  1  0  0  0  0
 11 12  1  0  0  0  0
  6 12  1  0  0  0  0
 10 13  1  0  0  0  0
 13 14  2  0  0  0  0
 14 15  1  0  0  0  0
 15 16  2  0  0  0  0
  9 16  1  0  0  0  0
  8 17  1  0  0  0  0
 17 18  1  0  0  0  0
 18 19  1  0  0  0  0
 19 20  1  0  0  0  0
 20 21  1  0  0  0  0
M  CHG  2   1   1  22  -1
M  END
>  <Name>
Desipramine HCl

>  <CAS>
58-28-6

>  <Formula>
C18H23ClN2

>  <MolWt>
302.84 

>  <Bioactivity>
A tricyclic dibenzazepine compound that potentiates neurotransmission. Desipramine selectively blocks reuptake of norepinephrine from the neural synapse, and also appears to impair serotonin transport. This compound also possesses minor anticholinergic activity, through its affinity to muscarinic receptors.


>  <Pathways>
Neuroscience

>  <Target>
5-HT receptor antagonist;Adrenergic Receptor antagonist

>  <Receptor>
5-HT receptor;Adrenergic receptor 

>  <Reference>
1. Zavosh A, et al. Brain Res Bull. 1999 Jul 1;49(4):291-5.

$$$$
34580-14-8
  Mrv1561503291623562D          

 30 32  0  0  0  0            999 V2000
    1.5179   -0.0704    0.0000 C   0  0  0  0  0  0  0  0  0  0  0  0
    2.1452    0.4654    0.0000 C   0  0  0  0  0  0  0  0  0  0  0  0
    1.8295    1.2276    0.0000 S   0  0  0  0  0  0  0  0  0  0  0  0
    1.0070    1.1629    0.0000 C   0  0  0  0  0  0  0  0  0  0  0  0
    0.8145    0.3607    0.0000 C   0  0  0  0  0  0  0  0  0  0  0  0
    0.0672    0.0110    0.0000 C   0  0  0  0  0  0  0  0  0  0  0  0
   -0.6720    0.3773    0.0000 C   0  0  0  0  0  0  0  0  0  0  0  0
   -0.8466    1.1836    0.0000 C   0  0  0  0  0  0  0  0  0  0  0  0
   -0.3250    1.8228    0.0000 C   0  0  0  0  0  0  0  0  0  0  0  0
    0.4999    1.8136    0.0000 C   0  0  0  0  0  0  0  0  0  0  0  0
    0.8662    2.5528    0.0000 O   0  0  0  0  0  0  0  0  0  0  0  0
   -1.6322    1.4356    0.0000 C   0  0  0  0  0  0  0  0  0  0  0  0
   -2.2432    0.8812    0.0000 C   0  0  0  0  0  0  0  0  0  0  0  0
   -2.0686    0.0749    0.0000 C   0  0  0  0  0  0  0  0  0  0  0  0
   -1.2830   -0.1771    0.0000 C   0  0  0  0  0  0  0  0  0  0  0  0
    0.0580   -0.8139    0.0000 C   0  0  0  0  0  0  0  0  0  0  0  0
    0.7678   -1.2344    0.0000 C   0  0  0  0  0  0  0  0  0  0  0  0
    0.7586   -2.0593    0.0000 C   0  0  0  0  0  0  0  0  0  0  0  0
    0.0396   -2.4638    0.0000 N   0  0  0  0  0  0  0  0  0  0  0  0
    0.0303   -3.2888    0.0000 C   0  0  0  0  0  0  0  0  0  0  0  0
   -0.6702   -2.0434    0.0000 C   0  0  0  0  0  0  0  0  0  0  0  0
   -0.6610   -1.2184    0.0000 C   0  0  0  0  0  0  0  0  0  0  0  0
    7.2131    0.7145    0.0000 O   0  0  0  0  0  0  0  0  0  0  0  0
    6.3881    0.7145    0.0000 C   0  0  0  0  0  0  0  0  0  0  0  0
    5.9756   -0.0000    0.0000 C   0  0  0  0  0  0  0  0  0  0  0  0
    5.1506   -0.0000    0.0000 C   0  0  0  0  0  0  0  0  0  0  0  0
    4.7381   -0.7145    0.0000 C   0  0  0  0  0  0  0  0  0  0  0  0
    5.1506   -1.4289    0.0000 O   0  0  0  0  0  0  0  0  0  0  0  0
    3.9131   -0.7145    0.0000 O   0  0  0  0  0  0  0  0  0  0  0  0
    5.9756    1.4289    0.0000 O   0  0  0  0  0  0  0  0  0  0  0  0
  1  2  2  0  0  0  0
  2  3  1  0  0  0  0
  3  4  1  0  0  0  0
  4  5  2  0  0  0  0
  1  5  1  0  0  0  0
  5  6  1  0  0  0  0
  6  7  1  0  0  0  0
  7  8  2  0  0  0  0
  8  9  1  0  0  0  0
  9 10  1  0  0  0  0
  4 10  1  0  0  0  0
 10 11  2  0  0  0  0
  8 12  1  0  0  0  0
 12 13  2  0  0  0  0
 13 14  1  0  0  0  0
 14 15  2  0  0  0  0
  7 15  1  0  0  0  0
  6 16  2  0  0  0  0
 16 17  1  0  0  0  0
 17 18  1  0  0  0  0
 18 19  1  0  0  0  0
 19 20  1  0  0  0  0
 19 21  1  0  0  0  0
 21 22  1  0  0  0  0
 16 22  1  0  0  0  0
 23 24  2  0  0  0  0
 24 25  1  0  0  0  0
 25 26  2  0  0  0  0
 26 27  1  0  0  0  0
 27 28  1  0  0  0  0
 27 29  2  0  0  0  0
 24 30  1  0  0  0  0
M  END
>  <Name>
Ketotifen fumarate

>  <CAS>
34580-14-8

>  <Formula>
C23H23NO5S

>  <MolWt>
425.50 

>  <Bioactivity>
A cycloheptathiophene blocker of histamine H1 receptors and release of inflammatory mediators. It has been proposed for the treatment of asthma, rhinitis, skin allergies, and anaphylaxis.


>  <Pathways>
Neuroscience;Metabolism

>  <Target>
Histamine Receptor antagonist;PDE inhibitor

>  <Receptor>
Histamine H1 receptor;PDE

>  <Reference>
1. Mita H, Shida T. Arzneimittelforschung. 1995 Jan;45(1):36-40.

$$$$
297-76-7
  Mrv1561503291623562D          

 28 31  0  0  1  0            999 V2000
    4.7875    0.9666    0.0000 C   0  0  2  0  0  0  0  0  0  0  0  0
    3.9629    0.9934    0.0000 C   0  0  2  0  0  0  0  0  0  0  0  0
    3.6826    0.2174    0.0000 C   0  0  2  0  0  0  0  0  0  0  0  0
    2.8705    0.0722    0.0000 C   0  0  1  0  0  0  0  0  0  0  0  0
    2.3387    0.7029    0.0000 C   0  0  1  0  0  0  0  0  0  0  0  0
    1.5266    0.5577    0.0000 C   0  0  2  0  0  0  0  0  0  0  0  0
    1.2463   -0.2182    0.0000 C   0  0  0  0  0  0  0  0  0  0  0  0
    0.4342   -0.3634    0.0000 C   0  0  0  0  0  0  0  0  0  0  0  0
   -0.0976    0.2673    0.0000 C   0  0  1  0  0  0  0  0  0  0  0  0
   -0.9098    0.1221    0.0000 O   0  0  0  0  0  0  0  0  0  0  0  0
   -1.4416    0.7528    0.0000 C   0  0  0  0  0  0  0  0  0  0  0  0
   -2.2537    0.6076    0.0000 C   0  0  0  0  0  0  0  0  0  0  0  0
   -1.1613    1.5287    0.0000 O   0  0  0  0  0  0  0  0  0  0  0  0
    0.1827    1.0432    0.0000 C   0  0  0  0  0  0  0  0  0  0  0  0
    0.9948    1.1884    0.0000 C   0  0  0  0  0  0  0  0  0  0  0  0
    1.7781   -0.8489    0.0000 C   0  0  0  0  0  0  0  0  0  0  0  0
    2.5902   -0.7037    0.0000 C   0  0  0  0  0  0  0  0  0  0  0  0
    2.6190    1.4789    0.0000 C   0  0  0  0  0  0  0  0  0  0  0  0
    3.4311    1.6241    0.0000 C   0  0  0  0  0  0  0  0  0  0  0  0
    4.3340   -0.2889    0.0000 C   0  0  0  0  0  0  0  0  0  0  0  0
    5.0168    0.1741    0.0000 C   0  0  0  0  0  0  0  0  0  0  0  0
    4.3228    1.7357    0.0000 C   0  0  0  0  0  0  0  0  0  0  0  0
    5.5484    1.2854    0.0000 O   0  0  0  0  0  0  0  0  0  0  0  0
    6.2050    0.7859    0.0000 C   0  0  0  0  0  0  0  0  0  0  0  0
    6.1007   -0.0325    0.0000 C   0  0  0  0  0  0  0  0  0  0  0  0
    6.9659    1.1048    0.0000 O   0  0  0  0  0  0  0  0  0  0  0  0
    4.9089    1.7826    0.0000 C   0  0  0  0  0  0  0  0  0  0  0  0
    5.0303    2.5986    0.0000 C   0  0  0  0  0  0  0  0  0  0  0  0
  1  2  1  0  0  0  0
  2  3  1  0  0  0  0
  3  4  1  0  0  0  0
  4  5  1  0  0  0  0
  5  6  1  0  0  0  0
  6  7  1  0  0  0  0
  7  8  2  0  0  0  0
  8  9  1  0  0  0  0
  9 10  1  1  0  0  0
 10 11  1  0  0  0  0
 11 12  1  0  0  0  0
 11 13  2  0  0  0  0
  9 14  1  0  0  0  0
 14 15  1  0  0  0  0
  6 15  1  6  0  0  0
  7 16  1  0  0  0  0
 16 17  1  0  0  0  0
  4 17  1  6  0  0  0
  5 18  1  1  0  0  0
 18 19  1  0  0  0  0
  2 19  1  0  0  0  0
  3 20  1  1  0  0  0
 20 21  1  0  0  0  0
  1 21  1  0  0  0  0
  2 22  1  1  0  0  0
  1 23  1  1  0  0  0
 23 24  1  0  0  0  0
 24 25  1  0  0  0  0
 24 26  2  0  0  0  0
  1 27  1  6  0  0  0
 27 28  3  0  0  0  0
M  END
>  <Name>
Ethynodiol diacetate

>  <CAS>
297-76-7

>  <Formula>
C24H32O4

>  <MolWt>
384.51 

>  <Bioactivity>
Ethynodiol diacetate is one of the first synthetic progestogens used in contraceptive pills.

>  <Pathways>
Endocrinology/ Hormones

>  <Target>
Estrogen/Progestogen Receptor agonist

>  <Receptor>
Estrogen/progestogen Receptor

>  <Reference>
1. Siddique YH, et al. J Environ Biol, 2007, 28(2), 279-282.

$$$$
6138-79-0
  Mrv1561503291623562D          

 24 23  0  0  0  0            999 V2000
    0.4125    0.0000    0.0000 H   0  3  0  0  0  0  0  0  0  0  0  0
    5.1561   -1.0311    0.0000 C   0  0  0  0  0  0  0  0  0  0  0  0
    5.1561   -1.8561    0.0000 N   0  0  0  0  0  0  0  0  0  0  0  0
    5.8235   -2.3410    0.0000 C   0  0  0  0  0  0  0  0  0  0  0  0
    5.5686   -3.1257    0.0000 C   0  0  0  0  0  0  0  0  0  0  0  0
    4.7436   -3.1257    0.0000 C   0  0  0  0  0  0  0  0  0  0  0  0
    4.4887   -2.3410    0.0000 C   0  0  0  0  0  0  0  0  0  0  0  0
    4.4416   -0.6186    0.0000 C   0  0  0  0  0  0  0  0  0  0  0  0
    4.4416    0.2064    0.0000 C   0  0  0  0  0  0  0  0  0  0  0  0
    5.1561    0.6189    0.0000 C   0  0  0  0  0  0  0  0  0  0  0  0
    5.1561    1.4439    0.0000 C   0  0  0  0  0  0  0  0  0  0  0  0
    5.8706    1.8564    0.0000 C   0  0  0  0  0  0  0  0  0  0  0  0
    6.5850    1.4439    0.0000 C   0  0  0  0  0  0  0  0  0  0  0  0
    6.5850    0.6189    0.0000 C   0  0  0  0  0  0  0  0  0  0  0  0
    5.8706    0.2064    0.0000 C   0  0  0  0  0  0  0  0  0  0  0  0
    7.2995    1.8564    0.0000 C   0  0  0  0  0  0  0  0  0  0  0  0
    3.7272    0.6189    0.0000 C   0  0  0  0  0  0  0  0  0  0  0  0
    3.0127    0.2064    0.0000 C   0  0  0  0  0  0  0  0  0  0  0  0
    2.2982    0.6189    0.0000 C   0  0  0  0  0  0  0  0  0  0  0  0
    2.2982    1.4439    0.0000 C   0  0  0  0  0  0  0  0  0  0  0  0
    3.0127    1.8564    0.0000 C   0  0  0  0  0  0  0  0  0  0  0  0
    3.7272    1.4439    0.0000 N   0  0  0  0  0  0  0  0  0  0  0  0
   -0.4125    0.0000    0.0000 Cl  0  5  0  0  0  0  0  0  0  0  0  0
    0.0000   -4.7757    0.0000 O   0  0  0  0  0  0  0  0  0  0  0  0
  2  3  1  0  0  0  0
  3  4  1  0  0  0  0
  4  5  1  0  0  0  0
  5  6  1  0  0  0  0
  6  7  1  0  0  0  0
  3  7  1  0  0  0  0
  2  8  1  0  0  0  0
  8  9  2  0  0  0  0
  9 10  1  0  0  0  0
 10 11  2  0  0  0  0
 11 12  1  0  0  0  0
 12 13  2  0  0  0  0
 13 14  1  0  0  0  0
 14 15  2  0  0  0  0
 10 15  1  0  0  0  0
 13 16  1  0  0  0  0
  9 17  1  0  0  0  0
 17 18  2  0  0  0  0
 18 19  1  0  0  0  0
 19 20  2  0  0  0  0
 20 21  1  0  0  0  0
 21 22  2  0  0  0  0
 17 22  1  0  0  0  0
M  CHG  2   1   1  23  -1
M  END
>  <Name>
Triprolidine HCl

>  <CAS>
6138-79-0

>  <Formula>
C19H23ClN2

>  <MolWt>
314.85 

>  <Bioactivity>
Histamine H1 antagonist used in allergic rhinitis; ASTHMA; and URTICARIA. It is a component of COUGH and COLD medicines. It may cause drowsiness.


>  <Pathways>
Neuroscience

>  <Target>
Histamine Receptor antagonist

>  <Receptor>
Histamine H1 receptor

>  <Reference>
1. Hansen EB Jr, et al. J Pharm Sci. 1988 Mar;77(3):259-64.

$$$$
115436-72-1
  Mrv1561503291623562D          

 40 34  0  0  0  0            999 V2000
   -0.1359   -1.7936    0.0000 C   0  0  0  0  0  0  0  0  0  0  0  0
   -0.1359   -0.9686    0.0000 C   0  0  0  0  0  0  0  0  0  0  0  0
    0.5786   -0.5561    0.0000 C   0  0  0  0  0  0  0  0  0  0  0  0
    1.2931   -0.9686    0.0000 C   0  0  0  0  0  0  0  0  0  0  0  0
    1.2931   -1.7936    0.0000 N   0  0  0  0  0  0  0  0  0  0  0  0
    0.5786   -2.2061    0.0000 C   0  0  0  0  0  0  0  0  0  0  0  0
    0.5786    0.2689    0.0000 C   0  0  0  0  0  0  0  0  0  0  0  0
   -0.1359    0.6814    0.0000 C   0  0  0  0  0  0  0  0  0  0  0  0
   -0.8503    1.0939    0.0000 O   0  0  0  0  0  0  0  0  0  0  0  0
    0.2766    1.3958    0.0000 P   0  0  0  0  0  0  0  0  0  0  0  0
    0.6891    2.1103    0.0000 O   0  0  0  0  0  0  0  0  0  0  0  0
    0.9911    0.9833    0.0000 O   0  0  0  0  0  0  0  0  0  0  0  0
   -0.4378    1.8083    0.0000 O   0  0  0  0  0  0  0  0  0  0  0  0
   -0.5484   -0.0331    0.0000 P   0  0  0  0  0  0  0  0  0  0  0  0
    0.1661   -0.4456    0.0000 O   0  0  0  0  0  0  0  0  0  0  0  0
   -0.9609   -0.7476    0.0000 O   0  0  0  0  0  0  0  0  0  0  0  0
   -1.2628    0.3794    0.0000 O   0  5  0  0  0  0  0  0  0  0  0  0
    4.3058   -1.7471    0.0000 C   0  0  0  0  0  0  0  0  0  0  0  0
    4.3058   -0.9221    0.0000 C   0  0  0  0  0  0  0  0  0  0  0  0
    5.0202   -0.5096    0.0000 C   0  0  0  0  0  0  0  0  0  0  0  0
    5.7347   -0.9221    0.0000 C   0  0  0  0  0  0  0  0  0  0  0  0
    5.7347   -1.7471    0.0000 N   0  0  0  0  0  0  0  0  0  0  0  0
    5.0202   -2.1596    0.0000 C   0  0  0  0  0  0  0  0  0  0  0  0
    5.0202    0.3154    0.0000 C   0  0  0  0  0  0  0  0  0  0  0  0
    4.3058    0.7279    0.0000 C   0  0  0  0  0  0  0  0  0  0  0  0
    3.5913    1.1404    0.0000 O   0  0  0  0  0  0  0  0  0  0  0  0
    3.8933    0.0135    0.0000 P   0  0  0  0  0  0  0  0  0  0  0  0
    3.4808   -0.7010    0.0000 O   0  0  0  0  0  0  0  0  0  0  0  0
    3.1788    0.4260    0.0000 O   0  0  0  0  0  0  0  0  0  0  0  0
    4.6077   -0.3990    0.0000 O   0  0  0  0  0  0  0  0  0  0  0  0
    4.7183    1.4424    0.0000 P   0  0  0  0  0  0  0  0  0  0  0  0
    4.0038    1.8549    0.0000 O   0  0  0  0  0  0  0  0  0  0  0  0
    5.1308    2.1569    0.0000 O   0  0  0  0  0  0  0  0  0  0  0  0
    5.4327    1.0299    0.0000 O   0  5  0  0  0  0  0  0  0  0  0  0
    8.0919    0.0000    0.0000 O   0  0  0  0  0  0  0  0  0  0  0  0
    0.0000   -3.8561    0.0000 O   0  0  0  0  0  0  0  0  0  0  0  0
    2.3571   -3.8561    0.0000 O   0  0  0  0  0  0  0  0  0  0  0  0
    4.7143   -3.8561    0.0000 O   0  0  0  0  0  0  0  0  0  0  0  0
    0.0000   -5.5061    0.0000 O   0  0  0  0  0  0  0  0  0  0  0  0
   -1.9773    0.7919    0.0000 Na  0  3  0  0  0  0  0  0  0  0  0  0
  1  2  2  0  0  0  0
  2  3  1  0  0  0  0
  3  4  2  0  0  0  0
  4  5  1  0  0  0  0
  5  6  2  0  0  0  0
  1  6  1  0  0  0  0
  3  7  1  0  0  0  0
  7  8  1  0  0  0  0
  8  9  1  0  0  0  0
  8 10  1  0  0  0  0
 10 11  2  0  0  0  0
 10 12  1  0  0  0  0
 10 13  1  0  0  0  0
  8 14  1  0  0  0  0
 14 15  2  0  0  0  0
 14 16  1  0  0  0  0
 14 17  1  0  0  0  0
 18 19  2  0  0  0  0
 19 20  1  0  0  0  0
 20 21  2  0  0  0  0
 21 22  1  0  0  0  0
 22 23  2  0  0  0  0
 18 23  1  0  0  0  0
 20 24  1  0  0  0  0
 24 25  1  0  0  0  0
 25 26  1  0  0  0  0
 25 27  1  0  0  0  0
 27 28  2  0  0  0  0
 27 29  1  0  0  0  0
 27 30  1  0  0  0  0
 25 31  1  0  0  0  0
 31 32  2  0  0  0  0
 31 33  1  0  0  0  0
 31 34  1  0  0  0  0
M  CHG  3  17  -1  34  -1  40   1
M  END
>  <Name>
Risedronate Sodium

>  <CAS>
115436-72-1

>  <Formula>
C7H10NNaO7P2

>  <MolWt>
305.09 

>  <Bioactivity>
Risedronate Sodium, a nitrogen-containing bisphosphonate, inhibits osteoclast-mediated bone resorption and modulates bone metabolism, used in the treatment of osteoporosis.

>  <Pathways>
Enzyme

>  <Target>
FPS inhibitor;HAP antagonist

>  <Receptor>
FPS;HAP

>  <Reference>
1. Bergstrom JD, et al. Arch Biochem Biophys. 2000 Jan 1;373(1):231-41.

$$$$
107007-99-8
  Mrv1561503291623562D          

 25 26  0  0  0  0            999 V2000
    0.4125    0.0000    0.0000 H   0  3  0  0  0  0  0  0  0  0  0  0
    4.3932    0.9105    0.0000 C   0  0  0  0  0  0  0  0  0  0  0  0
    4.2217    0.1036    0.0000 C   0  0  0  0  0  0  0  0  0  0  0  0
    4.7066   -0.5639    0.0000 C   0  0  0  0  0  0  0  0  0  0  0  0
    4.2217   -1.2313    0.0000 N   0  0  0  0  0  0  0  0  0  0  0  0
    3.4371   -0.9764    0.0000 N   0  0  0  0  0  0  0  0  0  0  0  0
    3.4371   -0.1514    0.0000 C   0  0  0  0  0  0  0  0  0  0  0  0
    2.8240    0.4007    0.0000 C   0  0  0  0  0  0  0  0  0  0  0  0
    2.9955    1.2076    0.0000 C   0  0  0  0  0  0  0  0  0  0  0  0
    3.7801    1.4626    0.0000 C   0  0  0  0  0  0  0  0  0  0  0  0
    2.7696   -1.4613    0.0000 C   0  0  0  0  0  0  0  0  0  0  0  0
    5.5316   -0.5639    0.0000 C   0  0  0  0  0  0  0  0  0  0  0  0
    5.9441   -1.2783    0.0000 O   0  0  0  0  0  0  0  0  0  0  0  0
    5.9441    0.1506    0.0000 N   0  0  0  0  0  0  0  0  0  0  0  0
    6.7691    0.1506    0.0000 C   0  0  0  0  0  0  0  0  0  0  0  0
    7.0848   -0.6116    0.0000 C   0  0  0  0  0  0  0  0  0  0  0  0
    7.8470   -0.9273    0.0000 C   0  0  0  0  0  0  0  0  0  0  0  0
    7.5776    0.1506    0.0000 N   0  0  0  0  0  0  0  0  0  0  0  0
    7.8470    1.2285    0.0000 C   0  0  0  0  0  0  0  0  0  0  0  0
    7.0848    0.9128    0.0000 C   0  0  0  0  0  0  0  0  0  0  0  0
    8.6092    0.9128    0.0000 C   0  0  0  0  0  0  0  0  0  0  0  0
    8.9250    0.1506    0.0000 C   0  0  0  0  0  0  0  0  0  0  0  0
    8.6092   -0.6116    0.0000 C   0  0  0  0  0  0  0  0  0  0  0  0
    6.9101    0.6355    0.0000 C   0  0  0  0  0  0  0  0  0  0  0  0
   -0.4125    0.0000    0.0000 Cl  0  5  0  0  0  0  0  0  0  0  0  0
  2  3  2  0  0  0  0
  3  4  1  0  0  0  0
  4  5  2  0  0  0  0
  5  6  1  0  0  0  0
  6  7  1  0  0  0  0
  3  7  1  0  0  0  0
  7  8  2  0  0  0  0
  8  9  1  0  0  0  0
  9 10  2  0  0  0  0
  2 10  1  0  0  0  0
  6 11  1  0  0  0  0
  4 12  1  0  0  0  0
 12 13  2  0  0  0  0
 12 14  1  0  0  0  0
 14 15  1  0  0  0  0
 15 16  1  0  0  0  0
 16 17  1  0  0  0  0
 17 18  1  0  0  0  0
 18 19  1  0  0  0  0
 19 20  1  0  0  0  0
 15 20  1  0  0  0  0
 19 21  1  0  0  0  0
 21 22  1  0  0  0  0
 22 23  1  0  0  0  0
 17 23  1  0  0  0  0
 18 24  1  0  0  0  0
M  CHG  2   1   1  25  -1
M  END
>  <Name>
Granisetron HCl

>  <CAS>
107007-99-8

>  <Formula>
C18H25ClN4O

>  <MolWt>
348.87 

>  <Bioactivity>
A serotonin receptor (5HT-3 selective) antagonist that has been used as an antiemetic for cancer chemotherapy patients.


>  <Pathways>
Neuroscience

>  <Target>
5-HT Receptor antagonist

>  <Receptor>
5-HT Receptor

>  <Reference>
1. Turvill JL, et al. Br J Pharmacol. 2000 Jul;130(5):1031-6. 

$$$$
T1047
  Mrv1561503291623562D          

 23 22  0  0  1  0            999 V2000
    0.3572    0.2063    0.0000 C   0  0  2  0  0  0  0  0  0  0  0  0
    0.3572    1.0313    0.0000 O   0  0  0  0  0  0  0  0  0  0  0  0
   -0.3572   -0.2062    0.0000 C   0  0  1  0  0  0  0  0  0  0  0  0
   -0.3572   -1.0312    0.0000 O   0  0  0  0  0  0  0  0  0  0  0  0
   -1.0717    0.2063    0.0000 C   0  0  0  0  0  0  0  0  0  0  0  0
   -1.7862   -0.2063    0.0000 O   0  0  0  0  0  0  0  0  0  0  0  0
   -1.0717    1.0312    0.0000 O   0  0  0  0  0  0  0  0  0  0  0  0
    1.0717   -0.2062    0.0000 C   0  0  0  0  0  0  0  0  0  0  0  0
    1.7862    0.2063    0.0000 O   0  0  0  0  0  0  0  0  0  0  0  0
    1.0717   -1.0312    0.0000 O   0  0  0  0  0  0  0  0  0  0  0  0
    5.5723    0.9202    0.0000 C   0  0  2  0  0  0  0  0  0  0  0  0
    6.2867    1.3327    0.0000 O   0  0  0  0  0  0  0  0  0  0  0  0
    5.5723    0.0952    0.0000 C   0  0  0  0  0  0  0  0  0  0  0  0
    6.2867   -0.3173    0.0000 C   0  0  0  0  0  0  0  0  0  0  0  0
    6.2867   -1.1423    0.0000 C   0  0  0  0  0  0  0  0  0  0  0  0
    5.5723   -1.5548    0.0000 C   0  0  0  0  0  0  0  0  0  0  0  0
    5.5723   -2.3798    0.0000 O   0  0  0  0  0  0  0  0  0  0  0  0
    4.8578   -1.1423    0.0000 C   0  0  0  0  0  0  0  0  0  0  0  0
    4.8578   -0.3173    0.0000 C   0  0  0  0  0  0  0  0  0  0  0  0
    4.1433   -1.5548    0.0000 O   0  0  0  0  0  0  0  0  0  0  0  0
    4.8578    1.3327    0.0000 C   0  0  0  0  0  0  0  0  0  0  0  0
    4.8578    2.1577    0.0000 N   0  0  0  0  0  0  0  0  0  0  0  0
    4.1433    2.5702    0.0000 C   0  0  0  0  0  0  0  0  0  0  0  0
  1  2  1  1  0  0  0
  1  3  1  0  0  0  0
  3  4  1  1  0  0  0
  3  5  1  0  0  0  0
  5  6  2  0  0  0  0
  5  7  1  0  0  0  0
  1  8  1  0  0  0  0
  8  9  2  0  0  0  0
  8 10  1  0  0  0  0
 11 12  1  6  0  0  0
 11 13  1  0  0  0  0
 13 14  2  0  0  0  0
 14 15  1  0  0  0  0
 15 16  2  0  0  0  0
 16 17  1  0  0  0  0
 16 18  1  0  0  0  0
 18 19  2  0  0  0  0
 13 19  1  0  0  0  0
 18 20  1  0  0  0  0
 11 21  1  0  0  0  0
 21 22  1  0  0  0  0
 22 23  1  0  0  0  0
M  END
>  <Name>
Epinephrine bitartrate

>  <CAS>
51-42-3

>  <Formula>
C13H19NO9

>  <MolWt>
333.30 

>  <Bioactivity>
The active sympathomimetic hormone from the ADRENAL MEDULLA. It stimulates both the alpha- and beta- adrenergic systems, causes systemic VASOCONSTRICTION and gastrointestinal relaxation, stimulates the HEART, and dilates BRONCHI and cerebral vessels. It is used in ASTHMA and CARDIAC FAILURE and to delay absorption of local ANESTHETICS.


>  <Pathways>
GPCR/G Protein

>  <Target>
Adrenergic Receptor antagonist;PAH antagonist;TNF-alpha antagonist

>  <Receptor>
Adrenergic Receptor;PAH;TNF

>  <Reference>
1. Sanbe A, et al. Br J Pharmacol. 2007 Oct;152(3):332-40. 

$$$$
19237-84-4
  Mrv1561503291623562D          

 30 31  0  0  0  0            999 V2000
    0.4125    0.0000    0.0000 H   0  3  0  0  0  0  0  0  0  0  0  0
    4.9131    1.8490    0.0000 C   0  0  0  0  0  0  0  0  0  0  0  0
    4.1986    1.4365    0.0000 C   0  0  0  0  0  0  0  0  0  0  0  0
    3.4841    1.8490    0.0000 O   0  0  0  0  0  0  0  0  0  0  0  0
    2.7696    1.4365    0.0000 C   0  0  0  0  0  0  0  0  0  0  0  0
    4.1986    0.6115    0.0000 C   0  0  0  0  0  0  0  0  0  0  0  0
    4.9131    0.1990    0.0000 C   0  0  0  0  0  0  0  0  0  0  0  0
    5.6275    0.6115    0.0000 C   0  0  0  0  0  0  0  0  0  0  0  0
    5.6275    1.4365    0.0000 C   0  0  0  0  0  0  0  0  0  0  0  0
    6.3420    1.8490    0.0000 C   0  0  0  0  0  0  0  0  0  0  0  0
    7.0565    1.4365    0.0000 N   0  0  0  0  0  0  0  0  0  0  0  0
    7.0565    0.6115    0.0000 C   0  0  0  0  0  0  0  0  0  0  0  0
    6.3420    0.1990    0.0000 N   0  0  0  0  0  0  0  0  0  0  0  0
    7.7709    0.1990    0.0000 N   0  0  0  0  0  0  0  0  0  0  0  0
    8.4854    0.6115    0.0000 C   0  0  0  0  0  0  0  0  0  0  0  0
    9.1999    0.1990    0.0000 C   0  0  0  0  0  0  0  0  0  0  0  0
    9.1999   -0.6260    0.0000 N   0  0  0  0  0  0  0  0  0  0  0  0
    9.9144   -1.0385    0.0000 C   0  0  0  0  0  0  0  0  0  0  0  0
   10.6288   -0.6260    0.0000 O   0  0  0  0  0  0  0  0  0  0  0  0
    9.9144   -1.8635    0.0000 C   0  0  0  0  0  0  0  0  0  0  0  0
   10.5818   -2.3484    0.0000 C   0  0  0  0  0  0  0  0  0  0  0  0
   10.3269   -3.1331    0.0000 C   0  0  0  0  0  0  0  0  0  0  0  0
    9.5019   -3.1331    0.0000 C   0  0  0  0  0  0  0  0  0  0  0  0
    9.2469   -2.3484    0.0000 O   0  0  0  0  0  0  0  0  0  0  0  0
    8.4854   -1.0385    0.0000 C   0  0  0  0  0  0  0  0  0  0  0  0
    7.7709   -0.6260    0.0000 C   0  0  0  0  0  0  0  0  0  0  0  0
    6.3420    2.6740    0.0000 N   0  0  0  0  0  0  0  0  0  0  0  0
    3.4841    0.1990    0.0000 O   0  0  0  0  0  0  0  0  0  0  0  0
    3.4841   -0.6260    0.0000 C   0  0  0  0  0  0  0  0  0  0  0  0
   -0.4125    0.0000    0.0000 Cl  0  5  0  0  0  0  0  0  0  0  0  0
  2  3  2  0  0  0  0
  3  4  1  0  0  0  0
  4  5  1  0  0  0  0
  3  6  1  0  0  0  0
  6  7  2  0  0  0  0
  7  8  1  0  0  0  0
  8  9  2  0  0  0  0
  2  9  1  0  0  0  0
  9 10  1  0  0  0  0
 10 11  2  0  0  0  0
 11 12  1  0  0  0  0
 12 13  2  0  0  0  0
  8 13  1  0  0  0  0
 12 14  1  0  0  0  0
 14 15  1  0  0  0  0
 15 16  1  0  0  0  0
 16 17  1  0  0  0  0
 17 18  1  0  0  0  0
 18 19  2  0  0  0  0
 18 20  1  0  0  0  0
 20 21  2  0  0  0  0
 21 22  1  0  0  0  0
 22 23  2  0  0  0  0
 23 24  1  0  0  0  0
 20 24  1  0  0  0  0
 17 25  1  0  0  0  0
 25 26  1  0  0  0  0
 14 26  1  0  0  0  0
 10 27  1  0  0  0  0
  6 28  1  0  0  0  0
 28 29  1  0  0  0  0
M  CHG  2   1   1  30  -1
M  END
>  <Name>
Prazosin HCl

>  <CAS>
19237-84-4

>  <Formula>
C19H22ClN5O4

>  <MolWt>
419.86 

>  <Bioactivity>
A selective adrenergic alpha-1 antagonist used in the treatment of HEART FAILURE; HYPERTENSION; PHEOCHROMOCYTOMA; RAYNAUD DISEASE; PROSTATIC HYPERTROPHY; and URINARY RETENTION.


>  <Pathways>
GPCR/G Protein

>  <Target>
Potassium channel inhibitor;ABC inhibitor;Adrenergic Receptor antagonist ;MRP inhibitor

>  <Receptor>
Potassium Channel ;ABCG;Adrenergic receptor ;MRP1

>  <Reference>
1. Chang HK, et al. J Pharm Pharmacol. 2003 Jun;55(6):833-7.

$$$$
74050-98-9
  Mrv1561503291623562D          

 29 32  0  0  0  0            999 V2000
   -0.0000    0.0000    0.0000 C   0  0  0  0  0  0  0  0  0  0  0  0
   -0.7145   -0.4125    0.0000 C   0  0  0  0  0  0  0  0  0  0  0  0
   -0.7145   -1.2375    0.0000 C   0  0  0  0  0  0  0  0  0  0  0  0
   -0.0000   -1.6500    0.0000 C   0  0  0  0  0  0  0  0  0  0  0  0
    0.7145   -1.2375    0.0000 C   0  0  0  0  0  0  0  0  0  0  0  0
    0.7145   -0.4125    0.0000 C   0  0  0  0  0  0  0  0  0  0  0  0
    1.4289    0.0000    0.0000 N   0  0  0  0  0  0  0  0  0  0  0  0
    2.1434   -0.4125    0.0000 C   0  0  0  0  0  0  0  0  0  0  0  0
    2.8579    0.0000    0.0000 O   0  0  0  0  0  0  0  0  0  0  0  0
    2.1434   -1.2375    0.0000 N   0  0  0  0  0  0  0  0  0  0  0  0
    1.4289   -1.6500    0.0000 C   0  0  0  0  0  0  0  0  0  0  0  0
    1.4289   -2.4750    0.0000 O   0  0  0  0  0  0  0  0  0  0  0  0
    2.8579   -1.6500    0.0000 C   0  0  0  0  0  0  0  0  0  0  0  0
    3.5724   -1.2375    0.0000 C   0  0  0  0  0  0  0  0  0  0  0  0
    4.2868   -1.6500    0.0000 N   0  0  0  0  0  0  0  0  0  0  0  0
    5.0013   -1.2375    0.0000 C   0  0  0  0  0  0  0  0  0  0  0  0
    5.7158   -1.6500    0.0000 C   0  0  0  0  0  0  0  0  0  0  0  0
    5.7158   -2.4750    0.0000 C   0  0  0  0  0  0  0  0  0  0  0  0
    6.4302   -2.8875    0.0000 C   0  0  0  0  0  0  0  0  0  0  0  0
    6.4302   -3.7125    0.0000 C   0  0  0  0  0  0  0  0  0  0  0  0
    7.1447   -4.1250    0.0000 C   0  0  0  0  0  0  0  0  0  0  0  0
    7.1447   -4.9500    0.0000 C   0  0  0  0  0  0  0  0  0  0  0  0
    6.4302   -5.3625    0.0000 C   0  0  0  0  0  0  0  0  0  0  0  0
    6.4302   -6.1875    0.0000 F   0  0  0  0  0  0  0  0  0  0  0  0
    5.7158   -4.9500    0.0000 C   0  0  0  0  0  0  0  0  0  0  0  0
    5.7158   -4.1250    0.0000 C   0  0  0  0  0  0  0  0  0  0  0  0
    7.1447   -2.4750    0.0000 O   0  0  0  0  0  0  0  0  0  0  0  0
    5.0013   -2.8875    0.0000 C   0  0  0  0  0  0  0  0  0  0  0  0
    4.2868   -2.4750    0.0000 C   0  0  0  0  0  0  0  0  0  0  0  0
  1  2  2  0  0  0  0
  2  3  1  0  0  0  0
  3  4  2  0  0  0  0
  4  5  1  0  0  0  0
  5  6  2  0  0  0  0
  1  6  1  0  0  0  0
  6  7  1  0  0  0  0
  7  8  1  0  0  0  0
  8  9  2  0  0  0  0
  8 10  1  0  0  0  0
 10 11  1  0  0  0  0
  5 11  1  0  0  0  0
 11 12  2  0  0  0  0
 10 13  1  0  0  0  0
 13 14  1  0  0  0  0
 14 15  1  0  0  0  0
 15 16  1  0  0  0  0
 16 17  1  0  0  0  0
 17 18  1  0  0  0  0
 18 19  1  0  0  0  0
 19 20  1  0  0  0  0
 20 21  2  0  0  0  0
 21 22  1  0  0  0  0
 22 23  2  0  0  0  0
 23 24  1  0  0  0  0
 23 25  1  0  0  0  0
 25 26  2  0  0  0  0
 20 26  1  0  0  0  0
 19 27  2  0  0  0  0
 18 28  1  0  0  0  0
 28 29  1  0  0  0  0
 15 29  1  0  0  0  0
M  END
>  <Name>
Ketanserin

>  <CAS>
74050-98-9

>  <Formula>
C22H22FN3O3

>  <MolWt>
395.43 

>  <Bioactivity>
A selective serotonin receptor antagonist with weak adrenergic receptor blocking properties. The drug is effective in lowering blood pressure in essential hypertension. It also inhibits platelet aggregation. It is well tolerated and is particularly effective in older patients.


>  <Pathways>
Neuroscience

>  <Target>
5-HT Receptor antagonist

>  <Receptor>
5-HT Receptor

>  <Reference>
1. Van Nueten JM, et al. J Pharmacol Exp Ther, 1981, 218(1), 217-230.

$$$$
T1088
  Mrv1561503291623562D          

 33 35  0  0  1  0            999 V2000
    1.2375   -0.9355    0.0000 C   0  0  1  0  0  0  0  0  0  0  0  0
    1.6500   -0.2211    0.0000 C   0  0  0  0  0  0  0  0  0  0  0  0
    1.2375    0.4934    0.0000 C   0  0  0  0  0  0  0  0  0  0  0  0
    0.4125    0.4934    0.0000 N   0  0  0  0  0  0  0  0  0  0  0  0
   -0.0000   -0.2211    0.0000 C   0  0  0  0  0  0  0  0  0  0  0  0
   -0.8250   -0.2211    0.0000 C   0  0  0  0  0  0  0  0  0  0  0  0
   -1.2375    0.4934    0.0000 C   0  0  0  0  0  0  0  0  0  0  0  0
   -0.8250    1.2079    0.0000 C   0  0  0  0  0  0  0  0  0  0  0  0
    0.0000    1.2079    0.0000 C   0  0  0  0  0  0  0  0  0  0  0  0
    1.6500    1.2079    0.0000 C   0  0  0  0  0  0  0  0  0  0  0  0
    2.4750    1.2079    0.0000 C   0  0  0  0  0  0  0  0  0  0  0  0
    2.8875    0.4934    0.0000 C   0  0  0  0  0  0  0  0  0  0  0  0
    2.4750   -0.2211    0.0000 C   0  0  0  0  0  0  0  0  0  0  0  0
    0.4125   -0.9355    0.0000 N   0  0  0  0  0  0  0  0  0  0  0  0
   -0.0000   -1.6500    0.0000 C   0  0  0  0  0  0  0  0  0  0  0  0
   -0.8250   -1.6500    0.0000 C   0  0  0  0  0  0  0  0  0  0  0  0
   -1.2375   -2.3645    0.0000 C   0  0  0  0  0  0  0  0  0  0  0  0
   -0.8250   -3.0789    0.0000 C   0  0  0  0  0  0  0  0  0  0  0  0
   -1.2375   -3.7934    0.0000 C   0  0  0  0  0  0  0  0  0  0  0  0
   -2.0625   -3.7934    0.0000 C   0  0  0  0  0  0  0  0  0  0  0  0
   -2.4750   -3.0789    0.0000 C   0  0  0  0  0  0  0  0  0  0  0  0
   -2.0625   -2.3645    0.0000 C   0  0  0  0  0  0  0  0  0  0  0  0
   -3.3000   -3.0789    0.0000 O   0  0  0  0  0  0  0  0  0  0  0  0
   -3.7125   -2.3645    0.0000 C   0  0  0  0  0  0  0  0  0  0  0  0
   -4.5375   -2.3645    0.0000 C   0  0  0  0  0  0  0  0  0  0  0  0
   -2.4750   -4.5079    0.0000 C   0  0  0  0  0  0  0  0  0  0  0  0
   -3.3000   -4.5079    0.0000 O   0  0  0  0  0  0  0  0  0  0  0  0
   -2.0625   -5.2224    0.0000 O   0  0  0  0  0  0  0  0  0  0  0  0
    0.4125   -2.3645    0.0000 O   0  0  0  0  0  0  0  0  0  0  0  0
    1.6500   -1.6500    0.0000 C   0  0  0  0  0  0  0  0  0  0  0  0
    2.4750   -1.6500    0.0000 C   0  0  0  0  0  0  0  0  0  0  0  0
    2.8875   -0.9355    0.0000 C   0  0  0  0  0  0  0  0  0  0  0  0
    2.8875   -2.3645    0.0000 C   0  0  0  0  0  0  0  0  0  0  0  0
  1  2  1  0  0  0  0
  2  3  2  0  0  0  0
  3  4  1  0  0  0  0
  4  5  1  0  0  0  0
  5  6  1  0  0  0  0
  6  7  1  0  0  0  0
  7  8  1  0  0  0  0
  8  9  1  0  0  0  0
  4  9  1  0  0  0  0
  3 10  1  0  0  0  0
 10 11  2  0  0  0  0
 11 12  1  0  0  0  0
 12 13  2  0  0  0  0
  2 13  1  0  0  0  0
  1 14  1  6  0  0  0
 14 15  1  0  0  0  0
 15 16  1  0  0  0  0
 16 17  1  0  0  0  0
 17 18  2  0  0  0  0
 18 19  1  0  0  0  0
 19 20  2  0  0  0  0
 20 21  1  0  0  0  0
 21 22  2  0  0  0  0
 17 22  1  0  0  0  0
 21 23  1  0  0  0  0
 23 24  1  0  0  0  0
 24 25  1  0  0  0  0
 20 26  1  0  0  0  0
 26 27  1  0  0  0  0
 26 28  2  0  0  0  0
 15 29  2  0  0  0  0
  1 30  1  0  0  0  0
 30 31  1  0  0  0  0
 31 32  1  0  0  0  0
 31 33  1  0  0  0  0
M  END
>  <Name>
Repaglinide

>  <CAS>
135062-02-1

>  <Formula>
C27H36N2O4

>  <MolWt>
452.59 

>  <Bioactivity>
Repaglinide is an oral antihyperglycemic agent used for the treatment of non-insulin-dependent diabetes mellitus (NIDDM). It belongs to the meglitinide class of short-acting insulin secretagogues, which act by binding to ? cells of the pancreas to stimulate insulin release. Repaglinide induces an early insulin response to meals decreasing postprandial blood glucose levels. It should only be taken with meals and meal-time doses should be skipped with any skipped meal. Approximately one month of therapy is required before a decrease in fasting blood glucose is seen. Meglitnides may have a neutral effect on weight or cause a slight increase in weight. The average weight gain caused by meglitinides appears to be lower than that caused by sulfonylureas and insulin and appears to occur only in those naïve to oral antidiabetic agents. Due to their mechanism of action, meglitinides may cause hypoglycemia although the risk is thought to be lower than that of sulfonylureas since their action is dependent on the presence of glucose. In addition to reducing postprandial and fasting blood glucose, meglitnides have been shown to decrease glycosylated hemoglobin (HbA1c) levels, which are reflective of the last 8-10 weeks of glucose control. Meglitinides appear to be more effective at lowering postprandial blood glucose than metformin, sulfonylureas and thiazolidinediones. Repaglinide is extensively metabolized in the liver and excreted in bile. Repaglinide metabolites do not possess appreciable hypoglycemic activity. Approximately 90% of a single orally administered dose is eliminated in feces and 8% in urine.


>  <Pathways>
Membrane Transporter/Ion Channel; Metabolism

>  <Target>
Potassium Channel inhibitor;PPAR agonist

>  <Receptor>
Potassium Channel ;PPAR?

>  <Reference>
1. Hansen AM, et al. Br J Pharmacol, 2005, 144(4), 551-557.

$$$$
58-39-9
  Mrv1561503291623562D          

 27 30  0  0  0  0            999 V2000
    3.5724    1.2375    0.0000 C   0  0  0  0  0  0  0  0  0  0  0  0
    4.2868    0.8250    0.0000 C   0  0  0  0  0  0  0  0  0  0  0  0
    5.0013    1.2375    0.0000 Cl  0  0  0  0  0  0  0  0  0  0  0  0
    4.2868   -0.0000    0.0000 C   0  0  0  0  0  0  0  0  0  0  0  0
    3.5724   -0.4125    0.0000 C   0  0  0  0  0  0  0  0  0  0  0  0
    2.8579   -0.0000    0.0000 C   0  0  0  0  0  0  0  0  0  0  0  0
    2.8579    0.8250    0.0000 C   0  0  0  0  0  0  0  0  0  0  0  0
    2.1434    1.2375    0.0000 N   0  0  0  0  0  0  0  0  0  0  0  0
    1.4289    0.8250    0.0000 C   0  0  0  0  0  0  0  0  0  0  0  0
    1.4289   -0.0000    0.0000 C   0  0  0  0  0  0  0  0  0  0  0  0
    0.7145   -0.4125    0.0000 C   0  0  0  0  0  0  0  0  0  0  0  0
   -0.0000    0.0000    0.0000 C   0  0  0  0  0  0  0  0  0  0  0  0
    0.0000    0.8250    0.0000 C   0  0  0  0  0  0  0  0  0  0  0  0
    0.7145    1.2375    0.0000 C   0  0  0  0  0  0  0  0  0  0  0  0
    2.1434   -0.4125    0.0000 S   0  0  0  0  0  0  0  0  0  0  0  0
    2.1434    2.0625    0.0000 C   0  0  0  0  0  0  0  0  0  0  0  0
    2.8579    2.4750    0.0000 C   0  0  0  0  0  0  0  0  0  0  0  0
    2.8579    3.3000    0.0000 C   0  0  0  0  0  0  0  0  0  0  0  0
    3.5724    3.7125    0.0000 N   0  0  0  0  0  0  0  0  0  0  0  0
    3.5724    4.5375    0.0000 C   0  0  0  0  0  0  0  0  0  0  0  0
    4.2868    4.9500    0.0000 C   0  0  0  0  0  0  0  0  0  0  0  0
    5.0013    4.5375    0.0000 N   0  0  0  0  0  0  0  0  0  0  0  0
    5.7158    4.9500    0.0000 C   0  0  0  0  0  0  0  0  0  0  0  0
    6.4302    4.5375    0.0000 C   0  0  0  0  0  0  0  0  0  0  0  0
    7.1447    4.9500    0.0000 O   0  0  0  0  0  0  0  0  0  0  0  0
    5.0013    3.7125    0.0000 C   0  0  0  0  0  0  0  0  0  0  0  0
    4.2868    3.3000    0.0000 C   0  0  0  0  0  0  0  0  0  0  0  0
  1  2  2  0  0  0  0
  2  3  1  0  0  0  0
  2  4  1  0  0  0  0
  4  5  2  0  0  0  0
  5  6  1  0  0  0  0
  6  7  2  0  0  0  0
  1  7  1  0  0  0  0
  7  8  1  0  0  0  0
  8  9  1  0  0  0  0
  9 10  2  0  0  0  0
 10 11  1  0  0  0  0
 11 12  2  0  0  0  0
 12 13  1  0  0  0  0
 13 14  2  0  0  0  0
  9 14  1  0  0  0  0
 10 15  1  0  0  0  0
  6 15  1  0  0  0  0
  8 16  1  0  0  0  0
 16 17  1  0  0  0  0
 17 18  1  0  0  0  0
 18 19  1  0  0  0  0
 19 20  1  0  0  0  0
 20 21  1  0  0  0  0
 21 22  1  0  0  0  0
 22 23  1  0  0  0  0
 23 24  1  0  0  0  0
 24 25  1  0  0  0  0
 22 26  1  0  0  0  0
 26 27  1  0  0  0  0
 19 27  1  0  0  0  0
M  END
>  <Name>
Perphenazine

>  <CAS>
58-39-9

>  <Formula>
C21H26ClN3OS

>  <MolWt>
403.97 

>  <Bioactivity>
An antipsychotic phenothiazine derivative with actions and uses similar to those of CHLORPROMAZINE.


>  <Pathways>
Membrane Transporter/Ion Channel; Neuroscience

>  <Target>
Calmodulin inhibitor;Dopamine Receptor antagonist

>  <Receptor>
Calmodulin;Dopamine receptor

>  <Reference>
1. Hoyberg OJ, et al. Acta Psychiatr Scand. 1993 Dec;88(6):395-402.

$$$$
77-36-1
  Mrv1561503291623562D          

 22 24  0  0  0  0            999 V2000
    3.2789    1.2375    0.0000 C   0  0  0  0  0  0  0  0  0  0  0  0
    3.9934    0.8250    0.0000 C   0  0  0  0  0  0  0  0  0  0  0  0
    3.9934    0.0000    0.0000 C   0  0  0  0  0  0  0  0  0  0  0  0
    3.2789   -0.4125    0.0000 C   0  0  0  0  0  0  0  0  0  0  0  0
    2.5645   -0.0000    0.0000 C   0  0  0  0  0  0  0  0  0  0  0  0
    2.5645    0.8250    0.0000 C   0  0  0  0  0  0  0  0  0  0  0  0
    1.7798    1.0799    0.0000 C   0  0  0  0  0  0  0  0  0  0  0  0
    2.1154    1.8336    0.0000 C   0  0  0  0  0  0  0  0  0  0  0  0
    1.6305    2.5011    0.0000 C   0  0  0  0  0  0  0  0  0  0  0  0
    1.9660    3.2547    0.0000 C   0  0  0  0  0  0  0  0  0  0  0  0
    2.7865    3.3410    0.0000 C   0  0  0  0  0  0  0  0  0  0  0  0
    3.1221    4.0946    0.0000 Cl  0  0  0  0  0  0  0  0  0  0  0  0
    3.2714    2.6735    0.0000 C   0  0  0  0  0  0  0  0  0  0  0  0
    2.9359    1.9199    0.0000 C   0  0  0  0  0  0  0  0  0  0  0  0
    1.4811    3.9222    0.0000 S   0  0  0  0  0  0  0  0  0  0  0  0
    0.9962    4.5896    0.0000 N   0  0  0  0  0  0  0  0  0  0  0  0
    2.1485    4.4071    0.0000 O   0  0  0  0  0  0  0  0  0  0  0  0
    0.8137    3.4372    0.0000 O   0  0  0  0  0  0  0  0  0  0  0  0
    1.2949    0.4125    0.0000 N   0  0  0  0  0  0  0  0  0  0  0  0
    1.7798   -0.2549    0.0000 C   0  0  0  0  0  0  0  0  0  0  0  0
    1.5249   -1.0396    0.0000 O   0  0  0  0  0  0  0  0  0  0  0  0
    1.0654    1.4924    0.0000 O   0  0  0  0  0  0  0  0  0  0  0  0
  1  2  2  0  0  0  0
  2  3  1  0  0  0  0
  3  4  2  0  0  0  0
  4  5  1  0  0  0  0
  5  6  2  0  0  0  0
  1  6  1  0  0  0  0
  6  7  1  0  0  0  0
  7  8  1  0  0  0  0
  8  9  2  0  0  0  0
  9 10  1  0  0  0  0
 10 11  2  0  0  0  0
 11 12  1  0  0  0  0
 11 13  1  0  0  0  0
 13 14  2  0  0  0  0
  8 14  1  0  0  0  0
 10 15  1  0  0  0  0
 15 16  1  0  0  0  0
 15 17  2  0  0  0  0
 15 18  2  0  0  0  0
  7 19  1  0  0  0  0
 19 20  1  0  0  0  0
  5 20  1  0  0  0  0
 20 21  2  0  0  0  0
  7 22  1  0  0  0  0
M  END
>  <Name>
Chlortalidone

>  <CAS>
77-36-1

>  <Formula>
C14H11ClN2O4S

>  <MolWt>
338.77 

>  <Bioactivity>
Chlorthalidone is a thiazide-like diuretic used to treat hypertension.

>  <Pathways>
Membrane Transporter/Ion Channel

>  <Target>
Sodium Channel inhibitor

>  <Receptor>
Na+/Ca2+ Exchanger

>  <Reference>
1. Baker WL, et al. Expert Rev Cardiovasc Ther. 2014 Jul;12(7):791-8.

$$$$
106685-40-9
  Mrv1561503291623562D          

 31 36  0  0  0  0            999 V2000
    2.1434   -2.8875    0.0000 C   0  0  0  0  0  0  0  0  0  0  0  0
    2.1434   -3.7125    0.0000 C   0  0  0  0  0  0  0  0  0  0  0  0
    2.8579   -4.1250    0.0000 C   0  0  0  0  0  0  0  0  0  0  0  0
    2.9020   -3.3013    0.0000 C   0  0  0  0  0  0  0  0  0  0  0  0
    3.3617   -4.0856    0.0000 C   0  0  0  0  0  0  0  0  0  0  0  0
    4.0089   -4.4594    0.0000 C   0  0  0  0  0  0  0  0  0  0  0  0
    3.9648   -5.2832    0.0000 C   0  0  0  0  0  0  0  0  0  0  0  0
    3.5051   -4.4987    0.0000 C   0  0  0  0  0  0  0  0  0  0  0  0
    3.2733   -5.7333    0.0000 C   0  0  0  0  0  0  0  0  0  0  0  0
    2.6261   -5.3596    0.0000 C   0  0  0  0  0  0  0  0  0  0  0  0
    2.1664   -4.5752    0.0000 C   0  0  0  0  0  0  0  0  0  0  0  0
    2.6703   -4.5357    0.0000 C   0  0  0  0  0  0  0  0  0  0  0  0
    1.4289   -4.1250    0.0000 C   0  0  0  0  0  0  0  0  0  0  0  0
    0.7145   -3.7125    0.0000 C   0  0  0  0  0  0  0  0  0  0  0  0
    0.7145   -2.8875    0.0000 C   0  0  0  0  0  0  0  0  0  0  0  0
    1.4289   -2.4750    0.0000 C   0  0  0  0  0  0  0  0  0  0  0  0
    1.4289   -1.6500    0.0000 C   0  0  0  0  0  0  0  0  0  0  0  0
    0.7145   -1.2375    0.0000 C   0  0  0  0  0  0  0  0  0  0  0  0
    0.7145   -0.4125    0.0000 C   0  0  0  0  0  0  0  0  0  0  0  0
    0.0000    0.0000    0.0000 C   0  0  0  0  0  0  0  0  0  0  0  0
    0.0000    0.8250    0.0000 C   0  0  0  0  0  0  0  0  0  0  0  0
    0.7145    1.2375    0.0000 C   0  0  0  0  0  0  0  0  0  0  0  0
    1.4289    0.8250    0.0000 C   0  0  0  0  0  0  0  0  0  0  0  0
    1.4289   -0.0000    0.0000 C   0  0  0  0  0  0  0  0  0  0  0  0
    2.1434   -0.4125    0.0000 C   0  0  0  0  0  0  0  0  0  0  0  0
    2.1434   -1.2375    0.0000 C   0  0  0  0  0  0  0  0  0  0  0  0
    0.7145    2.0625    0.0000 C   0  0  0  0  0  0  0  0  0  0  0  0
    0.0000    2.4750    0.0000 O   0  0  0  0  0  0  0  0  0  0  0  0
    1.4289    2.4750    0.0000 O   0  0  0  0  0  0  0  0  0  0  0  0
    1.4289   -4.9500    0.0000 O   0  0  0  0  0  0  0  0  0  0  0  0
    0.7145   -5.3625    0.0000 C   0  0  0  0  0  0  0  0  0  0  0  0
  1  2  2  0  0  0  0
  2  3  1  0  0  0  0
  3  4  1  0  0  0  0
  4  5  1  0  0  0  0
  5  6  1  0  0  0  0
  6  7  1  0  0  0  0
  7  8  1  0  0  0  0
  3  8  1  0  0  0  0
  7  9  1  0  0  0  0
  9 10  1  0  0  0  0
 10 11  1  0  0  0  0
  3 11  1  0  0  0  0
 10 12  1  0  0  0  0
  5 12  1  0  0  0  0
  2 13  1  0  0  0  0
 13 14  2  0  0  0  0
 14 15  1  0  0  0  0
 15 16  2  0  0  0  0
  1 16  1  0  0  0  0
 16 17  1  0  0  0  0
 17 18  2  0  0  0  0
 18 19  1  0  0  0  0
 19 20  2  0  0  0  0
 20 21  1  0  0  0  0
 21 22  2  0  0  0  0
 22 23  1  0  0  0  0
 23 24  2  0  0  0  0
 19 24  1  0  0  0  0
 24 25  1  0  0  0  0
 25 26  2  0  0  0  0
 17 26  1  0  0  0  0
 22 27  1  0  0  0  0
 27 28  1  0  0  0  0
 27 29  2  0  0  0  0
 13 30  1  0  0  0  0
 30 31  1  0  0  0  0
M  END
>  <Name>
Adapalene

>  <CAS>
106685-40-9

>  <Formula>
C28H28O3

>  <MolWt>
412.52 

>  <Bioactivity>
Adapalene is a topical retinoid primarily used in the treatment of acne and is also used (off-label) to treat keratosis pilaris as well as other skin conditions. It is currently marketed by Galderma under the trade names Differin in some countries, and Adaferin in India. 


>  <Pathways>
Metabolism

>  <Target>
RXR/RAR agonist

>  <Receptor>
RXR, RAR

>  <Reference>
1. Brogden RN, et al. Drugs, 1997, 53(3), 511-519.

$$$$
2398-96-1
  Mrv1561503291623562D          

 22 24  0  0  0  0            999 V2000
    0.0000   -1.6500    0.0000 C   0  0  0  0  0  0  0  0  0  0  0  0
    0.7145   -1.2375    0.0000 C   0  0  0  0  0  0  0  0  0  0  0  0
    0.7145   -0.4125    0.0000 C   0  0  0  0  0  0  0  0  0  0  0  0
   -0.0000    0.0000    0.0000 C   0  0  0  0  0  0  0  0  0  0  0  0
   -0.7145   -0.4125    0.0000 C   0  0  0  0  0  0  0  0  0  0  0  0
   -0.7145   -1.2375    0.0000 C   0  0  0  0  0  0  0  0  0  0  0  0
   -1.4289   -0.0000    0.0000 O   0  0  0  0  0  0  0  0  0  0  0  0
   -2.1434   -0.4125    0.0000 C   0  0  0  0  0  0  0  0  0  0  0  0
   -2.8579   -0.0000    0.0000 N   0  0  0  0  0  0  0  0  0  0  0  0
   -3.5724   -0.4125    0.0000 C   0  0  0  0  0  0  0  0  0  0  0  0
   -3.5724   -1.2375    0.0000 C   0  0  0  0  0  0  0  0  0  0  0  0
   -4.2868   -1.6500    0.0000 C   0  0  0  0  0  0  0  0  0  0  0  0
   -5.0013   -1.2375    0.0000 C   0  0  0  0  0  0  0  0  0  0  0  0
   -5.0013   -0.4125    0.0000 C   0  0  0  0  0  0  0  0  0  0  0  0
   -4.2868   -0.0000    0.0000 C   0  0  0  0  0  0  0  0  0  0  0  0
   -5.7158   -0.0000    0.0000 C   0  0  0  0  0  0  0  0  0  0  0  0
   -2.8579    0.8250    0.0000 C   0  0  0  0  0  0  0  0  0  0  0  0
   -2.1434   -1.2375    0.0000 S   0  0  0  0  0  0  0  0  0  0  0  0
    1.4289    0.0000    0.0000 C   0  0  0  0  0  0  0  0  0  0  0  0
    2.1434   -0.4125    0.0000 C   0  0  0  0  0  0  0  0  0  0  0  0
    2.1434   -1.2375    0.0000 C   0  0  0  0  0  0  0  0  0  0  0  0
    1.4289   -1.6500    0.0000 C   0  0  0  0  0  0  0  0  0  0  0  0
  1  2  2  0  0  0  0
  2  3  1  0  0  0  0
  3  4  2  0  0  0  0
  4  5  1  0  0  0  0
  5  6  2  0  0  0  0
  1  6  1  0  0  0  0
  5  7  1  0  0  0  0
  7  8  1  0  0  0  0
  8  9  1  0  0  0  0
  9 10  1  0  0  0  0
 10 11  2  0  0  0  0
 11 12  1  0  0  0  0
 12 13  2  0  0  0  0
 13 14  1  0  0  0  0
 14 15  2  0  0  0  0
 10 15  1  0  0  0  0
 14 16  1  0  0  0  0
  9 17  1  0  0  0  0
  8 18  2  0  0  0  0
  3 19  1  0  0  0  0
 19 20  2  0  0  0  0
 20 21  1  0  0  0  0
 21 22  2  0  0  0  0
  2 22  1  0  0  0  0
M  END
>  <Name>
Tolnaftate

>  <CAS>
2398-96-1

>  <Formula>
C19H17NOS

>  <MolWt>
307.42 

>  <Bioactivity>
Tolnaftate is a synthetic thiocarbamate used as an anti-fungal agent.

>  <Pathways>
Enzyme

>  <Target>
SMO inhibitor

>  <Receptor>
SMO

>  <Reference>
1. Barrett-Bee K, Dixon G. Acta Biochim Pol. 1995;42(4):465-79. 

$$$$
T1095
  Mrv1561503291623562D          

 28 31  0  0  1  0            999 V2000
   -2.8579   -1.6500    0.0000 C   0  0  1  0  0  0  0  0  0  0  0  0
   -2.1434   -1.2375    0.0000 C   0  0  0  0  0  0  0  0  0  0  0  0
   -1.4289   -1.6500    0.0000 N   0  0  0  0  0  0  0  0  0  0  0  0
   -0.7145   -1.2375    0.0000 C   0  0  0  0  0  0  0  0  0  0  0  0
   -0.0000   -1.6500    0.0000 C   0  0  0  0  0  0  0  0  0  0  0  0
    0.7145   -1.2375    0.0000 C   0  0  0  0  0  0  0  0  0  0  0  0
    0.7145   -0.4125    0.0000 C   0  0  0  0  0  0  0  0  0  0  0  0
    1.4289    0.0000    0.0000 C   0  0  0  0  0  0  0  0  0  0  0  0
    2.1434   -0.4125    0.0000 C   0  0  0  0  0  0  0  0  0  0  0  0
    2.1434   -1.2375    0.0000 C   0  0  0  0  0  0  0  0  0  0  0  0
    1.4289   -1.6500    0.0000 N   0  0  0  0  0  0  0  0  0  0  0  0
    1.4289   -2.4750    0.0000 C   0  0  0  0  0  0  0  0  0  0  0  0
    1.8414   -3.1895    0.0000 C   0  0  0  0  0  0  0  0  0  0  0  0
    1.0164   -3.1895    0.0000 C   0  0  0  0  0  0  0  0  0  0  0  0
    2.8579    0.0000    0.0000 C   0  0  0  0  0  0  0  0  0  0  0  0
    3.5724   -0.4125    0.0000 O   0  0  0  0  0  0  0  0  0  0  0  0
    2.8579    0.8250    0.0000 O   0  0  0  0  0  0  0  0  0  0  0  0
    1.4289    0.8250    0.0000 O   0  0  0  0  0  0  0  0  0  0  0  0
   -0.0000    0.0000    0.0000 C   0  0  0  0  0  0  0  0  0  0  0  0
   -0.7145   -0.4125    0.0000 C   0  0  0  0  0  0  0  0  0  0  0  0
   -1.4289   -0.0000    0.0000 F   0  0  0  0  0  0  0  0  0  0  0  0
   -0.0000    0.8250    0.0000 N   0  0  0  0  0  0  0  0  0  0  0  0
   -0.0000   -2.4750    0.0000 F   0  0  0  0  0  0  0  0  0  0  0  0
   -1.4289   -2.4750    0.0000 C   0  0  0  0  0  0  0  0  0  0  0  0
   -2.1434   -2.8875    0.0000 C   0  0  1  0  0  0  0  0  0  0  0  0
   -2.1434   -3.7125    0.0000 C   0  0  0  0  0  0  0  0  0  0  0  0
   -2.8579   -2.4750    0.0000 N   0  0  0  0  0  0  0  0  0  0  0  0
   -3.5724   -1.2375    0.0000 C   0  0  0  0  0  0  0  0  0  0  0  0
  1  2  1  0  0  0  0
  2  3  1  0  0  0  0
  3  4  1  0  0  0  0
  4  5  2  0  0  0  0
  5  6  1  0  0  0  0
  6  7  2  0  0  0  0
  7  8  1  0  0  0  0
  8  9  1  0  0  0  0
  9 10  2  0  0  0  0
 10 11  1  0  0  0  0
  6 11  1  0  0  0  0
 11 12  1  0  0  0  0
 12 13  1  0  0  0  0
 13 14  1  0  0  0  0
 12 14  1  0  0  0  0
  9 15  1  0  0  0  0
 15 16  1  0  0  0  0
 15 17  2  0  0  0  0
  8 18  2  0  0  0  0
  7 19  1  0  0  0  0
 19 20  2  0  0  0  0
  4 20  1  0  0  0  0
 20 21  1  0  0  0  0
 19 22  1  0  0  0  0
  5 23  1  0  0  0  0
  3 24  1  0  0  0  0
 24 25  1  0  0  0  0
 25 26  1  1  0  0  0
 25 27  1  0  0  0  0
  1 27  1  0  0  0  0
  1 28  1  1  0  0  0
M  END
>  <Name>
Sparfloxacin

>  <CAS>
110871-86-8

>  <Formula>
C19H22F2N4O3

>  <MolWt>
392.40 

>  <Bioactivity>
Sparfloxacin is a fluoroquinolone antibiotic used in the treatment of bacterial infections. Sparfloxacin exerts its antibacterial activity by inhibiting DNA gyrase, a bacterial topoisomerase. DNA gyrase is an essential enzyme which controls DNA topology and assists in DNA replication, repair, deactivation, and transcription.


>  <Pathways>
DNA Damage/DNA Repair;Microbiology & Virology

>  <Target>
DNA gyrase inhibitor;Topoisomerase inhibitor

>  <Receptor>
DNA gyrase;Topoisomerase II, IV

>  <Reference>
1. Schmitz FJ, et al. J Antimicrob Chemother. 1998 Apr;41(4):481-4. 

$$$$
79794-75-5
  Mrv1561503291623562D          

 27 30  0  0  0  0            999 V2000
    4.0859    1.1398    0.0000 C   0  0  0  0  0  0  0  0  0  0  0  0
    4.8742    1.3830    0.0000 C   0  0  0  0  0  0  0  0  0  0  0  0
    5.0578    2.1873    0.0000 C   0  0  0  0  0  0  0  0  0  0  0  0
    4.4530    2.7485    0.0000 C   0  0  0  0  0  0  0  0  0  0  0  0
    3.6647    2.5053    0.0000 C   0  0  0  0  0  0  0  0  0  0  0  0
    3.4811    1.7010    0.0000 C   0  0  0  0  0  0  0  0  0  0  0  0
    2.7378    1.3430    0.0000 C   0  0  0  0  0  0  0  0  0  0  0  0
    1.9945    1.7010    0.0000 C   0  0  0  0  0  0  0  0  0  0  0  0
    1.8109    2.5053    0.0000 C   0  0  0  0  0  0  0  0  0  0  0  0
    2.3253    3.1503    0.0000 C   0  0  0  0  0  0  0  0  0  0  0  0
    3.1503    3.1503    0.0000 C   0  0  0  0  0  0  0  0  0  0  0  0
    1.0226    2.7485    0.0000 C   0  0  0  0  0  0  0  0  0  0  0  0
    0.4178    2.1873    0.0000 C   0  0  0  0  0  0  0  0  0  0  0  0
    0.6014    1.3830    0.0000 C   0  0  0  0  0  0  0  0  0  0  0  0
    1.3897    1.1398    0.0000 N   0  0  0  0  0  0  0  0  0  0  0  0
    2.7378    0.5180    0.0000 C   0  0  0  0  0  0  0  0  0  0  0  0
    3.4523    0.1055    0.0000 C   0  0  0  0  0  0  0  0  0  0  0  0
    3.4523   -0.7195    0.0000 C   0  0  0  0  0  0  0  0  0  0  0  0
    2.7378   -1.1320    0.0000 N   0  0  0  0  0  0  0  0  0  0  0  0
    2.7378   -1.9570    0.0000 C   0  0  0  0  0  0  0  0  0  0  0  0
    2.0233   -2.3695    0.0000 O   0  0  0  0  0  0  0  0  0  0  0  0
    2.0233   -3.1945    0.0000 C   0  0  0  0  0  0  0  0  0  0  0  0
    1.3089   -3.6070    0.0000 C   0  0  0  0  0  0  0  0  0  0  0  0
    3.4523   -2.3695    0.0000 O   0  0  0  0  0  0  0  0  0  0  0  0
    2.0233   -0.7195    0.0000 C   0  0  0  0  0  0  0  0  0  0  0  0
    2.0233    0.1055    0.0000 C   0  0  0  0  0  0  0  0  0  0  0  0
    5.8461    2.4305    0.0000 Cl  0  0  0  0  0  0  0  0  0  0  0  0
  1  2  2  0  0  0  0
  2  3  1  0  0  0  0
  3  4  2  0  0  0  0
  4  5  1  0  0  0  0
  5  6  2  0  0  0  0
  1  6  1  0  0  0  0
  6  7  1  0  0  0  0
  7  8  1  0  0  0  0
  8  9  2  0  0  0  0
  9 10  1  0  0  0  0
 10 11  1  0  0  0  0
  5 11  1  0  0  0  0
  9 12  1  0  0  0  0
 12 13  2  0  0  0  0
 13 14  1  0  0  0  0
 14 15  2  0  0  0  0
  8 15  1  0  0  0  0
  7 16  2  0  0  0  0
 16 17  1  0  0  0  0
 17 18  1  0  0  0  0
 18 19  1  0  0  0  0
 19 20  1  0  0  0  0
 20 21  1  0  0  0  0
 21 22  1  0  0  0  0
 22 23  1  0  0  0  0
 20 24  2  0  0  0  0
 19 25  1  0  0  0  0
 25 26  1  0  0  0  0
 16 26  1  0  0  0  0
  3 27  1  0  0  0  0
M  END
>  <Name>
Loratadine

>  <CAS>
79794-75-5

>  <Formula>
C22H23ClN2O2

>  <MolWt>
382.88 

>  <Bioactivity>
A second-generation histamine H1 receptor antagonist used in the treatment of allergic rhinitis and urticaria. Unlike most classical antihistamines (HISTAMINE H1 ANTAGONISTS) it lacks central nervous system depressing effects such as drowsiness.


>  <Pathways>
Neuroscience

>  <Target>
Histamine Receptor antagonist

>  <Receptor>
Histamine H1 receptor

>  <Reference>
1. Cieslewicz G, et al. Pneumonol Alergol Pol. 1992;60(11-12):11-5.

$$$$
3734-33-6
  Mrv1561503291623562D          

 33 34  0  0  0  0            999 V2000
    0.3870   -2.3547    0.0000 C   0  0  0  0  0  0  0  0  0  0  0  0
    1.1015   -1.9422    0.0000 C   0  0  0  0  0  0  0  0  0  0  0  0
    1.1015   -1.1172    0.0000 C   0  0  0  0  0  0  0  0  0  0  0  0
    0.3870   -0.7047    0.0000 N   0  3  0  0  0  0  0  0  0  0  0  0
   -0.3275   -0.2922    0.0000 C   0  0  0  0  0  0  0  0  0  0  0  0
   -0.3275    0.5328    0.0000 C   0  0  0  0  0  0  0  0  0  0  0  0
   -1.0419    0.9453    0.0000 N   0  0  0  0  0  0  0  0  0  0  0  0
   -1.0419    1.7703    0.0000 C   0  0  0  0  0  0  0  0  0  0  0  0
   -1.7564    2.1828    0.0000 C   0  0  0  0  0  0  0  0  0  0  0  0
   -1.7564    3.0078    0.0000 C   0  0  0  0  0  0  0  0  0  0  0  0
   -1.0419    3.4203    0.0000 C   0  0  0  0  0  0  0  0  0  0  0  0
   -0.3275    3.0078    0.0000 C   0  0  0  0  0  0  0  0  0  0  0  0
   -0.3275    2.1828    0.0000 C   0  0  0  0  0  0  0  0  0  0  0  0
    0.3870    1.7703    0.0000 C   0  0  0  0  0  0  0  0  0  0  0  0
   -2.4709    1.7703    0.0000 C   0  0  0  0  0  0  0  0  0  0  0  0
    0.3870    0.9453    0.0000 O   0  0  0  0  0  0  0  0  0  0  0  0
   -0.0255   -1.4192    0.0000 C   0  0  0  0  0  0  0  0  0  0  0  0
   -0.8505   -1.4192    0.0000 C   0  0  0  0  0  0  0  0  0  0  0  0
    0.7995    0.0098    0.0000 C   0  0  0  0  0  0  0  0  0  0  0  0
    1.6245    0.0098    0.0000 C   0  0  0  0  0  0  0  0  0  0  0  0
    1.8159   -2.3547    0.0000 C   0  0  0  0  0  0  0  0  0  0  0  0
    1.8159   -3.1797    0.0000 C   0  0  0  0  0  0  0  0  0  0  0  0
    1.1015   -3.5922    0.0000 C   0  0  0  0  0  0  0  0  0  0  0  0
    0.3870   -3.1797    0.0000 C   0  0  0  0  0  0  0  0  0  0  0  0
    5.1306   -0.2292    0.0000 C   0  0  0  0  0  0  0  0  0  0  0  0
    5.1306   -1.0542    0.0000 C   0  0  0  0  0  0  0  0  0  0  0  0
    4.4161   -1.4667    0.0000 C   0  0  0  0  0  0  0  0  0  0  0  0
    3.7017   -1.0542    0.0000 C   0  0  0  0  0  0  0  0  0  0  0  0
    3.7017   -0.2292    0.0000 C   0  0  0  0  0  0  0  0  0  0  0  0
    4.4161    0.1833    0.0000 C   0  0  0  0  0  0  0  0  0  0  0  0
    4.4161    1.0083    0.0000 C   0  0  0  0  0  0  0  0  0  0  0  0
    3.7017    1.4208    0.0000 O   0  0  0  0  0  0  0  0  0  0  0  0
    5.1306    1.4208    0.0000 O   0  5  0  0  0  0  0  0  0  0  0  0
  1  2  2  0  0  0  0
  2  3  1  0  0  0  0
  3  4  1  0  0  0  0
  4  5  1  0  0  0  0
  5  6  1  0  0  0  0
  6  7  1  0  0  0  0
  7  8  1  0  0  0  0
  8  9  2  0  0  0  0
  9 10  1  0  0  0  0
 10 11  2  0  0  0  0
 11 12  1  0  0  0  0
 12 13  2  0  0  0  0
  8 13  1  0  0  0  0
 13 14  1  0  0  0  0
  9 15  1  0  0  0  0
  6 16  2  0  0  0  0
  4 17  1  0  0  0  0
 17 18  1  0  0  0  0
  4 19  1  0  0  0  0
 19 20  1  0  0  0  0
  2 21  1  0  0  0  0
 21 22  2  0  0  0  0
 22 23  1  0  0  0  0
 23 24  2  0  0  0  0
  1 24  1  0  0  0  0
 25 26  2  0  0  0  0
 26 27  1  0  0  0  0
 27 28  2  0  0  0  0
 28 29  1  0  0  0  0
 29 30  2  0  0  0  0
 25 30  1  0  0  0  0
 30 31  1  0  0  0  0
 31 32  2  0  0  0  0
 31 33  1  0  0  0  0
M  CHG  2   4   1  33  -1
M  END
>  <Name>
Denatonium benzoate

>  <CAS>
3734-33-6

>  <Formula>
C28H34N2O3

>  <MolWt>
446.58 

>  <Bioactivity>
Denatonium is a quaternary ammonium cation. It is a compound of a salt with an inert anion like benzoate or saccharide. The structure of denatonium is related to the local anesthetic lidocaine, differing only by the addition of a benzyl group to the amino nitrogen.

>  <Pathways>
Others

>  <Target>
Others

>  <Receptor>
Others

>  <Reference>
1. Meyerhof W, et al. Chem Senses. 2010 Feb;35(2):157-70. 

$$$$
566-48-3
  Mrv1561503291623562D          

 22 25  0  0  1  0            999 V2000
    2.3387    0.7029    0.0000 C   0  0  2  0  0  0  0  0  0  0  0  0
    2.8705    0.0722    0.0000 C   0  0  2  0  0  0  0  0  0  0  0  0
    3.6826    0.2174    0.0000 C   0  0  1  0  0  0  0  0  0  0  0  0
    3.9629    0.9934    0.0000 C   0  0  2  0  0  0  0  0  0  0  0  0
    4.7875    0.9666    0.0000 C   0  0  0  0  0  0  0  0  0  0  0  0
    5.2939    1.6179    0.0000 O   0  0  0  0  0  0  0  0  0  0  0  0
    5.0168    0.1741    0.0000 C   0  0  0  0  0  0  0  0  0  0  0  0
    4.3340   -0.2889    0.0000 C   0  0  0  0  0  0  0  0  0  0  0  0
    4.3228    1.7357    0.0000 C   0  0  0  0  0  0  0  0  0  0  0  0
    3.4311    1.6241    0.0000 C   0  0  0  0  0  0  0  0  0  0  0  0
    2.6190    1.4789    0.0000 C   0  0  0  0  0  0  0  0  0  0  0  0
    2.5902   -0.7037    0.0000 C   0  0  0  0  0  0  0  0  0  0  0  0
    1.7781   -0.8489    0.0000 C   0  0  0  0  0  0  0  0  0  0  0  0
    1.2463   -0.2182    0.0000 C   0  0  0  0  0  0  0  0  0  0  0  0
    0.4342   -0.3634    0.0000 C   0  0  0  0  0  0  0  0  0  0  0  0
   -0.0976    0.2673    0.0000 C   0  0  0  0  0  0  0  0  0  0  0  0
   -0.9098    0.1221    0.0000 O   0  0  0  0  0  0  0  0  0  0  0  0
    0.1827    1.0432    0.0000 C   0  0  0  0  0  0  0  0  0  0  0  0
    0.9948    1.1884    0.0000 C   0  0  0  0  0  0  0  0  0  0  0  0
    1.5266    0.5577    0.0000 C   0  0  2  0  0  0  0  0  0  0  0  0
    1.8069    1.3336    0.0000 C   0  0  0  0  0  0  0  0  0  0  0  0
    0.1539   -1.1393    0.0000 O   0  0  0  0  0  0  0  0  0  0  0  0
  1  2  1  0  0  0  0
  2  3  1  0  0  0  0
  3  4  1  0  0  0  0
  4  5  1  0  0  0  0
  5  6  2  0  0  0  0
  5  7  1  0  0  0  0
  7  8  1  0  0  0  0
  3  8  1  1  0  0  0
  4  9  1  1  0  0  0
  4 10  1  0  0  0  0
 10 11  1  0  0  0  0
  1 11  1  1  0  0  0
  2 12  1  6  0  0  0
 12 13  1  0  0  0  0
 13 14  1  0  0  0  0
 14 15  2  0  0  0  0
 15 16  1  0  0  0  0
 16 17  2  0  0  0  0
 16 18  1  0  0  0  0
 18 19  1  0  0  0  0
 19 20  1  0  0  0  0
  1 20  1  0  0  0  0
 14 20  1  0  0  0  0
 20 21  1  1  0  0  0
 15 22  1  0  0  0  0
M  END
>  <Name>
Formestane

>  <CAS>
566-48-3

>  <Formula>
C19H26O3

>  <MolWt>
302.41 

>  <Bioactivity>
Formestane was the first selective, type I, steroidal aromatase inhibitor used in the treatment of estrogen-receptor positive breast cancer in post-menopausal women. Formestane suppresses estrogen production from anabolic steroids or prohormones. It also acts as a prohormone to 4-hydroxytestosterone, an active steroid which displays weak androgenic activity in addition to acting as a mild aromatase inhibitor. It is listed as a prohibited substance by the World Anti-Doping Agency for use in athletes. Formestane has poor oral bioavailability, and thus must be administered forthnightly (bi-weekly) by intramuscular injection. Some clinical data has suggested that the clinically recommended dose of 250mg was too low. With the discovery of newer, non-steroidal and steroidal, aromatase inhibitors which were orally active and less expensive than formestane, formestane lost popularity. Currently, formestane (categorized as an anti-estrogenic agent) is prohibited from use in sports in accordance to the regulations of the World Anti-Doping Agency. It is not US FDA approved, and the intramuscular injection form of formestane (Lentaron) which was approved in Europe has been withdrawn.


>  <Pathways>
Endocrinology/ Hormones

>  <Target>
Aromatase Inhibitor

>  <Receptor>
Type I steroidal aromatase

>  <Reference>
1. Wiseman LR, Goa KL. Drugs Aging. 1996 Oct;9(4):292-306.

$$$$
T1107
  Mrv1561503291623562D          

 30 31  0  0  0  0            999 V2000
    0.4125    0.0000    0.0000 H   0  3  0  0  0  0  0  0  0  0  0  0
    5.6275    0.0737    0.0000 C   0  0  0  0  0  0  0  0  0  0  0  0
    6.3420   -0.3388    0.0000 C   0  0  0  0  0  0  0  0  0  0  0  0
    7.0565    0.0737    0.0000 N   0  0  0  0  0  0  0  0  0  0  0  0
    7.7709   -0.3388    0.0000 C   0  0  0  0  0  0  0  0  0  0  0  0
    7.7709   -1.1638    0.0000 C   0  0  0  0  0  0  0  0  0  0  0  0
    7.0565   -1.5763    0.0000 C   0  0  0  0  0  0  0  0  0  0  0  0
    7.0565   -2.4013    0.0000 O   0  0  0  0  0  0  0  0  0  0  0  0
    6.3420   -1.1638    0.0000 C   0  0  0  0  0  0  0  0  0  0  0  0
    5.6275   -1.5763    0.0000 C   0  0  0  0  0  0  0  0  0  0  0  0
    4.9131   -1.1638    0.0000 C   0  0  0  0  0  0  0  0  0  0  0  0
    4.9131   -0.3388    0.0000 C   0  0  0  0  0  0  0  0  0  0  0  0
    4.1986    0.0737    0.0000 N   0  0  0  0  0  0  0  0  0  0  0  0
    3.4841   -0.3388    0.0000 C   0  0  0  0  0  0  0  0  0  0  0  0
    2.7696    0.0737    0.0000 C   0  0  0  0  0  0  0  0  0  0  0  0
    2.7696    0.8987    0.0000 N   0  0  0  0  0  0  0  0  0  0  0  0
    3.4841    1.3112    0.0000 C   0  0  0  0  0  0  0  0  0  0  0  0
    4.1986    0.8987    0.0000 C   0  0  0  0  0  0  0  0  0  0  0  0
    4.1986   -1.5763    0.0000 F   0  0  0  0  0  0  0  0  0  0  0  0
    8.4854   -1.5763    0.0000 C   0  0  0  0  0  0  0  0  0  0  0  0
    8.4854   -2.4013    0.0000 O   0  0  0  0  0  0  0  0  0  0  0  0
    9.1999   -1.1638    0.0000 O   0  0  0  0  0  0  0  0  0  0  0  0
    7.0565    0.8987    0.0000 C   0  0  0  0  0  0  0  0  0  0  0  0
    6.3420    1.3112    0.0000 C   0  0  0  0  0  0  0  0  0  0  0  0
    6.3420    2.1362    0.0000 C   0  0  0  0  0  0  0  0  0  0  0  0
    7.0565    2.5487    0.0000 C   0  0  0  0  0  0  0  0  0  0  0  0
    7.0565    3.3737    0.0000 F   0  0  0  0  0  0  0  0  0  0  0  0
    7.7709    2.1362    0.0000 C   0  0  0  0  0  0  0  0  0  0  0  0
    7.7709    1.3112    0.0000 C   0  0  0  0  0  0  0  0  0  0  0  0
   -0.4125    0.0000    0.0000 Cl  0  5  0  0  0  0  0  0  0  0  0  0
  2  3  2  0  0  0  0
  3  4  1  0  0  0  0
  4  5  1  0  0  0  0
  5  6  2  0  0  0  0
  6  7  1  0  0  0  0
  7  8  2  0  0  0  0
  7  9  1  0  0  0  0
  3  9  1  0  0  0  0
  9 10  2  0  0  0  0
 10 11  1  0  0  0  0
 11 12  2  0  0  0  0
  2 12  1  0  0  0  0
 12 13  1  0  0  0  0
 13 14  1  0  0  0  0
 14 15  1  0  0  0  0
 15 16  1  0  0  0  0
 16 17  1  0  0  0  0
 17 18  1  0  0  0  0
 13 18  1  0  0  0  0
 11 19  1  0  0  0  0
  6 20  1  0  0  0  0
 20 21  1  0  0  0  0
 20 22  2  0  0  0  0
  4 23  1  0  0  0  0
 23 24  2  0  0  0  0
 24 25  1  0  0  0  0
 25 26  2  0  0  0  0
 26 27  1  0  0  0  0
 26 28  1  0  0  0  0
 28 29  2  0  0  0  0
 23 29  1  0  0  0  0
M  CHG  2   1   1  30  -1
M  END
>  <Name>
Sarafloxacin HCl

>  <CAS>
91296-87-6

>  <Formula>
C20H18ClF2N3O3

>  <MolWt>
421.83 

>  <Bioactivity>
Sarafloxacin HCl is a hydrochloride salt form of sarafloxacin which is a quinolone antibiotic drug.

>  <Pathways>
Microbiology & Virology

>  <Target>
Antibiotic

>  <Receptor>
Others

>  <Reference>
1. Cao Z, et al. Spectrochim Acta A Mol Biomol Spectrosc. 2015 Feb 5;136 Pt B:601-6. 

$$$$
T1224
  Mrv1561503291623562D          

 30 31  0  0  1  0            999 V2000
    1.6905   -0.1510    0.0000 C   0  0  0  0  0  0  0  0  0  0  0  0
    2.4049    0.2615    0.0000 S   0  0  0  0  0  0  0  0  0  0  0  0
    3.1194   -0.1510    0.0000 C   0  0  0  0  0  0  0  0  0  0  0  0
    3.1194   -0.9760    0.0000 C   0  0  0  0  0  0  0  0  0  0  0  0
    2.4049   -1.3885    0.0000 C   0  0  0  0  0  0  0  0  0  0  0  0
    1.6905   -0.9760    0.0000 N   0  0  0  0  0  0  0  0  0  0  0  0
    0.8655   -0.9760    0.0000 C   0  0  0  0  0  0  0  0  0  0  0  0
    0.2821   -1.5593    0.0000 O   0  0  0  0  0  0  0  0  0  0  0  0
    0.8655   -0.1510    0.0000 C   0  0  0  0  0  0  0  0  0  0  0  0
    0.2821    0.4324    0.0000 N   0  0  0  0  0  0  0  0  0  0  0  0
   -0.5148    0.2189    0.0000 C   0  0  0  0  0  0  0  0  0  0  0  0
   -0.7283   -0.5780    0.0000 O   0  0  0  0  0  0  0  0  0  0  0  0
   -1.0982    0.8022    0.0000 C   0  0  0  0  0  0  0  0  0  0  0  0
   -1.8950    0.5887    0.0000 N   0  0  0  0  0  0  0  0  0  0  0  0
   -2.1086   -0.2082    0.0000 O   0  0  0  0  0  0  0  0  0  0  0  0
   -2.9055   -0.4217    0.0000 C   0  0  0  0  0  0  0  0  0  0  0  0
   -0.8846    1.5991    0.0000 C   0  0  0  0  0  0  0  0  0  0  0  0
   -1.4038    2.2402    0.0000 C   0  0  0  0  0  0  0  0  0  0  0  0
   -0.9545    2.9322    0.0000 C   0  0  0  0  0  0  0  0  0  0  0  0
   -0.1576    2.7186    0.0000 C   0  0  0  0  0  0  0  0  0  0  0  0
   -0.1144    1.8948    0.0000 O   0  0  0  0  0  0  0  0  0  0  0  0
    2.4049   -2.2135    0.0000 C   0  0  0  0  0  0  0  0  0  0  0  0
    1.6905   -2.6260    0.0000 O   0  5  0  0  0  0  0  0  0  0  0  0
    3.1194   -2.6260    0.0000 O   0  0  0  0  0  0  0  0  0  0  0  0
    3.8339   -1.3885    0.0000 C   0  0  0  0  0  0  0  0  0  0  0  0
    4.5483   -0.9760    0.0000 O   0  0  0  0  0  0  0  0  0  0  0  0
    5.2628   -1.3885    0.0000 C   0  0  0  0  0  0  0  0  0  0  0  0
    5.9773   -0.9760    0.0000 O   0  0  0  0  0  0  0  0  0  0  0  0
    5.2628   -2.2135    0.0000 N   0  0  0  0  0  0  0  0  0  0  0  0
    0.9760   -3.0385    0.0000 Na  0  3  0  0  0  0  0  0  0  0  0  0
  1  2  1  0  0  0  0
  2  3  1  0  0  0  0
  3  4  1  0  0  0  0
  4  5  2  0  0  0  0
  5  6  1  0  0  0  0
  1  6  1  0  0  0  0
  6  7  1  0  0  0  0
  7  8  2  0  0  0  0
  7  9  1  0  0  0  0
  1  9  1  0  0  0  0
  9 10  1  0  0  0  0
 10 11  1  0  0  0  0
 11 12  2  0  0  0  0
 11 13  1  0  0  0  0
 13 14  2  0  0  0  0
 14 15  1  0  0  0  0
 15 16  1  0  0  0  0
 13 17  1  0  0  0  0
 17 18  2  0  0  0  0
 18 19  1  0  0  0  0
 19 20  2  0  0  0  0
 20 21  1  0  0  0  0
 17 21  1  0  0  0  0
  5 22  1  0  0  0  0
 22 23  1  0  0  0  0
 22 24  2  0  0  0  0
  4 25  1  0  0  0  0
 25 26  1  0  0  0  0
 26 27  1  0  0  0  0
 27 28  2  0  0  0  0
 27 29  1  0  0  0  0
M  CHG  2  23  -1  30   1
M  END
>  <Name>
Cefuroxime sodium

>  <CAS>
56238-63-2

>  <Formula>
C16H15N4NaO8S

>  <MolWt>
446.37 

>  <Bioactivity>
Broad-spectrum cephalosporin antibiotic resistant to beta-lactamase. It has been proposed for infections with gram-negative and gram-positive organisms, GONORRHEA, and HAEMOPHILUS.


>  <Pathways>
Microbiology & Virology

>  <Target>
Antibacterial

>  <Receptor>
Others

>  <Reference>
1. Zhao L, et al. J Biomed Biotechnol. 2012;2012:507294.

$$$$
T1235
  Mrv1561503291623562D          

 30 28  0  0  1  0            999 V2000
   -0.5544   -1.3750    0.0000 C   0  0  0  0  0  0  0  0  0  0  0  0
    0.1601   -1.7875    0.0000 O   0  0  0  0  0  0  0  0  0  0  0  0
   -0.5544   -0.5500    0.0000 C   0  0  0  0  0  0  0  0  0  0  0  0
    0.1601   -0.1375    0.0000 N   0  0  0  0  0  0  0  0  0  0  0  0
    0.8746   -0.5500    0.0000 C   0  0  0  0  0  0  0  0  0  0  0  0
    0.8746   -1.3750    0.0000 O   0  0  0  0  0  0  0  0  0  0  0  0
    1.5891   -0.1375    0.0000 C   0  0  0  0  0  0  0  0  0  0  0  0
    1.6753    0.6830    0.0000 N   0  0  0  0  0  0  0  0  0  0  0  0
    1.0622    1.2350    0.0000 C   0  0  0  0  0  0  0  0  0  0  0  0
    2.4823    0.8545    0.0000 C   0  0  0  0  0  0  0  0  0  0  0  0
    2.8948    0.1401    0.0000 C   0  0  0  0  0  0  0  0  0  0  0  0
    3.7152    0.0538    0.0000 C   0  0  0  0  0  0  0  0  0  0  0  0
    4.2002    0.7213    0.0000 C   0  0  0  0  0  0  0  0  0  0  0  0
    5.0206    0.6350    0.0000 C   0  0  0  0  0  0  0  0  0  0  0  0
    2.3427   -0.4730    0.0000 C   0  0  0  0  0  0  0  0  0  0  0  0
   -1.2688   -0.1375    0.0000 C   0  0  0  0  0  0  0  0  0  0  0  0
   -1.9833   -0.5500    0.0000 O   0  0  0  0  0  0  0  0  0  0  0  0
   -2.6978   -0.1375    0.0000 C   0  0  0  0  0  0  0  0  0  0  0  0
   -3.4122   -0.5500    0.0000 S   0  0  0  0  0  0  0  0  0  0  0  0
   -3.4122   -1.3750    0.0000 C   0  0  0  0  0  0  0  0  0  0  0  0
   -2.6978    0.6875    0.0000 C   0  0  0  0  0  0  0  0  0  0  0  0
   -3.4122    1.1000    0.0000 O   0  0  0  0  0  0  0  0  0  0  0  0
   -1.9833    1.1000    0.0000 C   0  0  0  0  0  0  0  0  0  0  0  0
   -1.9833    1.9250    0.0000 O   0  0  0  0  0  0  0  0  0  0  0  0
   -1.2688    0.6875    0.0000 C   0  0  0  0  0  0  0  0  0  0  0  0
   -0.5544    1.1000    0.0000 O   0  0  0  0  0  0  0  0  0  0  0  0
   -1.2688   -1.7875    0.0000 C   0  0  0  0  0  0  0  0  0  0  0  0
    8.2028    0.0000    0.0000 H   0  3  0  0  0  0  0  0  0  0  0  0
    7.3778    0.0000    0.0000 Cl  0  5  0  0  0  0  0  0  0  0  0  0
    0.0000   -3.4375    0.0000 O   0  0  0  0  0  0  0  0  0  0  0  0
  1  2  1  0  0  0  0
  1  3  1  0  0  0  0
  3  4  1  0  0  0  0
  4  5  1  0  0  0  0
  5  6  2  0  0  0  0
  5  7  1  0  0  0  0
  7  8  1  0  0  0  0
  8  9  1  0  0  0  0
  8 10  1  0  0  0  0
 10 11  1  0  0  0  0
 11 12  1  0  0  0  0
 12 13  1  0  0  0  0
 13 14  1  0  0  0  0
 11 15  1  0  0  0  0
  7 15  1  0  0  0  0
  3 16  1  0  0  0  0
 16 17  1  0  0  0  0
 17 18  1  0  0  0  0
 18 19  1  0  0  0  0
 19 20  1  0  0  0  0
 18 21  1  0  0  0  0
 21 22  1  0  0  0  0
 21 23  1  0  0  0  0
 23 24  1  0  0  0  0
 23 25  1  0  0  0  0
 16 25  1  0  0  0  0
 25 26  1  0  0  0  0
  1 27  1  0  0  0  0
M  CHG  2  28   1  29  -1
M  END
>  <Name>
Lincomycin HCl monohydrate

>  <CAS>
7179-49-9

>  <Formula>
C18H34N2O6S.HCl.H2O

>  <MolWt>
443.00 

>  <Bioactivity>
An antibiotic produced by Streptomyces lincolnensis var. lincolnensis. It has been used in the treatment of staphylococcal, streptococcal, and Bacteroides fragilis infections.


>  <Pathways>
Microbiology & Virology

>  <Target>
Antibiotic

>  <Receptor>
50S ribosomal protein

>  <Reference>
1. Odom OW, Hardesty B. J Biol Chem. 1992 Sep 25;267(27):19117-22. 

$$$$
T1544
  Mrv1561503291623562D          

 24 23  0  0  0  0            999 V2000
    0.7145   -2.8875    0.0000 C   0  0  0  0  0  0  0  0  0  0  0  0
    0.7145   -3.7125    0.0000 C   0  0  0  0  0  0  0  0  0  0  0  0
    1.4289   -4.1250    0.0000 N   0  0  0  0  0  0  0  0  0  0  0  0
    1.4289   -4.9500    0.0000 N   0  0  0  0  0  0  0  0  0  0  0  0
    2.1434   -5.3625    0.0000 C   0  0  0  0  0  0  0  0  0  0  0  0
    2.8579   -4.9500    0.0000 C   0  0  0  0  0  0  0  0  0  0  0  0
    3.5724   -5.3625    0.0000 C   0  0  0  0  0  0  0  0  0  0  0  0
    3.5724   -6.1875    0.0000 C   0  0  0  0  0  0  0  0  0  0  0  0
    4.2868   -6.6000    0.0000 O   0  0  0  0  0  0  0  0  0  0  0  0
    2.8579   -6.6000    0.0000 C   0  0  0  0  0  0  0  0  0  0  0  0
    2.1434   -6.1875    0.0000 C   0  0  0  0  0  0  0  0  0  0  0  0
    4.2868   -4.9500    0.0000 C   0  0  0  0  0  0  0  0  0  0  0  0
    5.0013   -5.3625    0.0000 O   0  5  0  0  0  0  0  0  0  0  0  0
    4.2868   -4.1250    0.0000 O   0  0  0  0  0  0  0  0  0  0  0  0
   -0.0000   -4.1250    0.0000 C   0  0  0  0  0  0  0  0  0  0  0  0
   -0.7145   -3.7125    0.0000 C   0  0  0  0  0  0  0  0  0  0  0  0
   -0.7145   -2.8875    0.0000 C   0  0  0  0  0  0  0  0  0  0  0  0
   -0.0000   -2.4750    0.0000 C   0  0  0  0  0  0  0  0  0  0  0  0
   -0.0000   -1.6500    0.0000 C   0  0  0  0  0  0  0  0  0  0  0  0
   -0.7145   -1.2375    0.0000 O   0  5  0  0  0  0  0  0  0  0  0  0
    0.7145   -1.2375    0.0000 O   0  0  0  0  0  0  0  0  0  0  0  0
   -1.4289   -2.4750    0.0000 O   0  0  0  0  0  0  0  0  0  0  0  0
    5.7158   -5.7750    0.0000 Na  0  3  0  0  0  0  0  0  0  0  0  0
   -1.4289   -0.8250    0.0000 Na  0  3  0  0  0  0  0  0  0  0  0  0
  1  2  2  0  0  0  0
  2  3  1  0  0  0  0
  3  4  1  0  0  0  0
  4  5  2  0  0  0  0
  5  6  1  0  0  0  0
  6  7  2  0  0  0  0
  7  8  1  0  0  0  0
  8  9  2  0  0  0  0
  8 10  1  0  0  0  0
 10 11  2  0  0  0  0
  5 11  1  0  0  0  0
  7 12  1  0  0  0  0
 12 13  1  0  0  0  0
 12 14  2  0  0  0  0
  2 15  1  0  0  0  0
 15 16  2  0  0  0  0
 16 17  1  0  0  0  0
 17 18  2  0  0  0  0
  1 18  1  0  0  0  0
 18 19  1  0  0  0  0
 19 20  1  0  0  0  0
 19 21  2  0  0  0  0
 17 22  1  0  0  0  0
M  CHG  4  13  -1  20  -1  23   1  24   1
M  END
>  <Name>
Olsalazine disodium

>  <CAS>
6054-98-4

>  <Formula>
C14H8N2Na2O6

>  <MolWt>
346.20 

>  <Bioactivity>
Olsalazine Sodium is a mesalamine dimer.

>  <Pathways>
Microbiology & Virology; Immunology/Inflammation

>  <Target>
Antibiotic; COX inhibitor; IF inhibitor

>  <Receptor>
Prostaglandin G/H synthase;IF?

>  <Reference>
1. Wadworth AN, et al. Drugs, 1991, 41(4), 647-664.

$$$$
132539-06-1
  Mrv1561503291623562D          

 22 25  0  0  0  0            999 V2000
    4.2685    2.6074    0.0000 C   0  0  0  0  0  0  0  0  0  0  0  0
    3.4829    2.3555    0.0000 C   0  0  0  0  0  0  0  0  0  0  0  0
    3.3084    1.5491    0.0000 C   0  0  0  0  0  0  0  0  0  0  0  0
    3.9194    0.9948    0.0000 C   0  0  0  0  0  0  0  0  0  0  0  0
    4.7050    1.2468    0.0000 C   0  0  0  0  0  0  0  0  0  0  0  0
    4.8795    2.0531    0.0000 C   0  0  0  0  0  0  0  0  0  0  0  0
    2.5691    1.1829    0.0000 N   0  0  0  0  0  0  0  0  0  0  0  0
    1.8219    1.5325    0.0000 C   0  0  0  0  0  0  0  0  0  0  0  0
    1.1184    1.1015    0.0000 S   0  0  0  0  0  0  0  0  0  0  0  0
    0.4911    1.6373    0.0000 C   0  0  0  0  0  0  0  0  0  0  0  0
    0.8068    2.3995    0.0000 C   0  0  0  0  0  0  0  0  0  0  0  0
    1.6293    2.3347    0.0000 C   0  0  0  0  0  0  0  0  0  0  0  0
    2.1364    2.9855    0.0000 C   0  0  0  0  0  0  0  0  0  0  0  0
    2.9614    2.9947    0.0000 N   0  0  0  0  0  0  0  0  0  0  0  0
    1.7702    3.7247    0.0000 N   0  0  0  0  0  0  0  0  0  0  0  0
    0.9469    3.7772    0.0000 C   0  0  0  0  0  0  0  0  0  0  0  0
    0.5806    4.5164    0.0000 C   0  0  0  0  0  0  0  0  0  0  0  0
    1.0377    5.2032    0.0000 N   0  0  0  0  0  0  0  0  0  0  0  0
    1.8610    5.1508    0.0000 C   0  0  0  0  0  0  0  0  0  0  0  0
    2.2273    4.4115    0.0000 C   0  0  0  0  0  0  0  0  0  0  0  0
    0.6715    5.9425    0.0000 C   0  0  0  0  0  0  0  0  0  0  0  0
   -0.3111    1.4448    0.0000 C   0  0  0  0  0  0  0  0  0  0  0  0
  1  2  2  0  0  0  0
  2  3  1  0  0  0  0
  3  4  2  0  0  0  0
  4  5  1  0  0  0  0
  5  6  2  0  0  0  0
  1  6  1  0  0  0  0
  3  7  1  0  0  0  0
  7  8  2  0  0  0  0
  8  9  1  0  0  0  0
  9 10  1  0  0  0  0
 10 11  2  0  0  0  0
 11 12  1  0  0  0  0
  8 12  1  0  0  0  0
 12 13  2  0  0  0  0
 13 14  1  0  0  0  0
  2 14  1  0  0  0  0
 13 15  1  0  0  0  0
 15 16  1  0  0  0  0
 16 17  1  0  0  0  0
 17 18  1  0  0  0  0
 18 19  1  0  0  0  0
 19 20  1  0  0  0  0
 15 20  1  0  0  0  0
 18 21  1  0  0  0  0
 10 22  1  0  0  0  0
M  END
>  <Name>
Olanzapine

>  <CAS>
132539-06-1

>  <Formula>
C17H20N4S

>  <MolWt>
312.44 

>  <Bioactivity>
Olanzapine is an atypical antipsychotic, approved by the FDA in 1996. Olanzapine is manufactured and marketed by the pharmaceutical company Eli Lilly and Company, whose patent for olanzapine proper ends in 2011.


>  <Pathways>
Neuroscience

>  <Target>
5-HT receptor antagonist;Histamine antagonist;Dopamine Receptor antagonist;Adrenergic Receptor antagonist ;AChR antagonist

>  <Receptor>
5-HT receptor ;Histamine receptor;Dopamine receptor;Adrenergic receptor ;Muscarinic AChR

>  <Reference>
1. McDonald LM, et al. Psychopharmacology (Berl). 2003 Sep;169(3-4):321-31.

$$$$
14028-44-5
  Mrv1561503291623562D          

 22 25  0  0  0  0            999 V2000
    5.5189    0.2898    0.0000 C   0  0  0  0  0  0  0  0  0  0  0  0
    6.1237    0.8510    0.0000 C   0  0  0  0  0  0  0  0  0  0  0  0
    6.9120    0.6078    0.0000 Cl  0  0  0  0  0  0  0  0  0  0  0  0
    5.9401    1.6553    0.0000 C   0  0  0  0  0  0  0  0  0  0  0  0
    5.1517    1.8985    0.0000 C   0  0  0  0  0  0  0  0  0  0  0  0
    4.5470    1.3373    0.0000 C   0  0  0  0  0  0  0  0  0  0  0  0
    4.7305    0.5330    0.0000 C   0  0  0  0  0  0  0  0  0  0  0  0
    4.2162   -0.1120    0.0000 C   0  0  0  0  0  0  0  0  0  0  0  0
    3.3912   -0.1120    0.0000 N   0  0  0  0  0  0  0  0  0  0  0  0
    2.8768    0.5330    0.0000 C   0  0  0  0  0  0  0  0  0  0  0  0
    3.0604    1.3373    0.0000 C   0  0  0  0  0  0  0  0  0  0  0  0
    3.8037    1.6953    0.0000 O   0  0  0  0  0  0  0  0  0  0  0  0
    2.4556    1.8985    0.0000 C   0  0  0  0  0  0  0  0  0  0  0  0
    1.6673    1.6553    0.0000 C   0  0  0  0  0  0  0  0  0  0  0  0
    1.4837    0.8510    0.0000 C   0  0  0  0  0  0  0  0  0  0  0  0
    2.0884    0.2898    0.0000 C   0  0  0  0  0  0  0  0  0  0  0  0
    4.5741   -0.8553    0.0000 N   0  0  0  0  0  0  0  0  0  0  0  0
    5.3968   -0.9170    0.0000 C   0  0  0  0  0  0  0  0  0  0  0  0
    5.7548   -1.6603    0.0000 C   0  0  0  0  0  0  0  0  0  0  0  0
    5.2900   -2.3419    0.0000 N   0  0  0  0  0  0  0  0  0  0  0  0
    4.4673   -2.2803    0.0000 C   0  0  0  0  0  0  0  0  0  0  0  0
    4.1094   -1.5370    0.0000 C   0  0  0  0  0  0  0  0  0  0  0  0
  1  2  2  0  0  0  0
  2  3  1  0  0  0  0
  2  4  1  0  0  0  0
  4  5  2  0  0  0  0
  5  6  1  0  0  0  0
  6  7  2  0  0  0  0
  1  7  1  0  0  0  0
  7  8  1  0  0  0  0
  8  9  2  0  0  0  0
  9 10  1  0  0  0  0
 10 11  2  0  0  0  0
 11 12  1  0  0  0  0
  6 12  1  0  0  0  0
 11 13  1  0  0  0  0
 13 14  2  0  0  0  0
 14 15  1  0  0  0  0
 15 16  2  0  0  0  0
 10 16  1  0  0  0  0
  8 17  1  0  0  0  0
 17 18  1  0  0  0  0
 18 19  1  0  0  0  0
 19 20  1  0  0  0  0
 20 21  1  0  0  0  0
 21 22  1  0  0  0  0
 17 22  1  0  0  0  0
M  END
>  <Name>
Amoxapine

>  <CAS>
14028-44-5

>  <Formula>
C17H16ClN3O

>  <MolWt>
313.79 

>  <Bioactivity>
Amoxapine is the N-demethylated derivative of the antipsychotic agent LOXAPINE that works by blocking the reuptake of norepinephrine, serotonin, or both. It also blocks dopamine receptors.


>  <Pathways>
Neuroscience

>  <Target>
GABAR antagonist;Noradrenaline uptake inhibitor;Dopamine Receptor antagonist;Adrenergic Receptor antagonist ;AChR antagonist;5-HT receptor antagonist;Serotonin uptake inhibitor

>  <Receptor>
GABAR;Sodium-dependent noradrenaline transporter;Dopamine receptor;Adrenergic receptor ;Muscarinic AChR;5-HT receptor ;Sodium-dependent serotonin transporter

>  <Reference>
1. Tatsumi M, et al. Eur J Pharmacol. 1997 Dec 11;340(2-3):249-58.

$$$$
302-22-7
  Mrv1561503291623562D          

 28 31  0  0  1  0            999 V2000
    4.7875    0.9666    0.0000 C   0  0  1  0  0  0  0  0  0  0  0  0
    3.9629    0.9934    0.0000 C   0  0  2  0  0  0  0  0  0  0  0  0
    3.6826    0.2174    0.0000 C   0  0  2  0  0  0  0  0  0  0  0  0
    2.8705    0.0722    0.0000 C   0  0  1  0  0  0  0  0  0  0  0  0
    2.3387    0.7029    0.0000 C   0  0  1  0  0  0  0  0  0  0  0  0
    1.5266    0.5577    0.0000 C   0  0  2  0  0  0  0  0  0  0  0  0
    1.2463   -0.2182    0.0000 C   0  0  0  0  0  0  0  0  0  0  0  0
    0.4342   -0.3634    0.0000 C   0  0  0  0  0  0  0  0  0  0  0  0
   -0.0976    0.2673    0.0000 C   0  0  0  0  0  0  0  0  0  0  0  0
   -0.9098    0.1221    0.0000 O   0  0  0  0  0  0  0  0  0  0  0  0
    0.1827    1.0432    0.0000 C   0  0  0  0  0  0  0  0  0  0  0  0
    0.9948    1.1884    0.0000 C   0  0  0  0  0  0  0  0  0  0  0  0
    1.7781   -0.8489    0.0000 C   0  0  0  0  0  0  0  0  0  0  0  0
    2.5902   -0.7037    0.0000 C   0  0  0  0  0  0  0  0  0  0  0  0
    1.4978   -1.6248    0.0000 Cl  0  0  0  0  0  0  0  0  0  0  0  0
    1.8069    1.3336    0.0000 C   0  0  0  0  0  0  0  0  0  0  0  0
    2.6190    1.4789    0.0000 C   0  0  0  0  0  0  0  0  0  0  0  0
    3.4311    1.6241    0.0000 C   0  0  0  0  0  0  0  0  0  0  0  0
    4.3340   -0.2889    0.0000 C   0  0  0  0  0  0  0  0  0  0  0  0
    5.0168    0.1741    0.0000 C   0  0  0  0  0  0  0  0  0  0  0  0
    4.3228    1.7357    0.0000 C   0  0  0  0  0  0  0  0  0  0  0  0
    5.5484    1.2854    0.0000 O   0  0  0  0  0  0  0  0  0  0  0  0
    6.2050    0.7859    0.0000 C   0  0  0  0  0  0  0  0  0  0  0  0
    6.9659    1.1048    0.0000 C   0  0  0  0  0  0  0  0  0  0  0  0
    6.1007   -0.0325    0.0000 O   0  0  0  0  0  0  0  0  0  0  0  0
    4.9089    1.7826    0.0000 C   0  0  0  0  0  0  0  0  0  0  0  0
    4.2629    2.2957    0.0000 C   0  0  0  0  0  0  0  0  0  0  0  0
    5.6763    2.0854    0.0000 O   0  0  0  0  0  0  0  0  0  0  0  0
  1  2  1  0  0  0  0
  2  3  1  0  0  0  0
  3  4  1  0  0  0  0
  4  5  1  0  0  0  0
  5  6  1  0  0  0  0
  6  7  1  0  0  0  0
  7  8  2  0  0  0  0
  8  9  1  0  0  0  0
  9 10  2  0  0  0  0
  9 11  1  0  0  0  0
 11 12  1  0  0  0  0
  6 12  1  0  0  0  0
  7 13  1  0  0  0  0
 13 14  2  0  0  0  0
  4 14  1  6  0  0  0
 13 15  1  0  0  0  0
  6 16  1  1  0  0  0
  5 17  1  1  0  0  0
 17 18  1  0  0  0  0
  2 18  1  0  0  0  0
  3 19  1  1  0  0  0
 19 20  1  0  0  0  0
  1 20  1  0  0  0  0
  2 21  1  1  0  0  0
  1 22  1  6  0  0  0
 22 23  1  0  0  0  0
 23 24  1  0  0  0  0
 23 25  2  0  0  0  0
  1 26  1  1  0  0  0
 26 27  1  0  0  0  0
 26 28  2  0  0  0  0
M  END
>  <Name>
Chlormadinone acetate

>  <CAS>
302-22-7

>  <Formula>
C23H29ClO4

>  <MolWt>
404.93 

>  <Bioactivity>
An orally active synthetic progestational hormone used often in combinations as an oral contraceptive.


>  <Pathways>
Endocrinology/ Hormones

>  <Target>
Androgen Receptor antagonist

>  <Receptor>
Androgen receptor

>  <Reference>
1. Kim JM, et al. Eur J Pharmacol. 2014 Mar 5;726:1-8.

$$$$
4759-48-2
  Mrv1561503291623562D          

 22 22  0  0  0  0            999 V2000
    0.1842    1.8695    0.0000 C   0  0  0  0  0  0  0  0  0  0  0  0
    0.7145    1.2375    0.0000 C   0  0  0  0  0  0  0  0  0  0  0  0
    1.4289    0.8250    0.0000 C   0  0  0  0  0  0  0  0  0  0  0  0
    1.4289    0.0000    0.0000 C   0  0  0  0  0  0  0  0  0  0  0  0
    0.7145   -0.4125    0.0000 C   0  0  0  0  0  0  0  0  0  0  0  0
    0.0000   -0.0000    0.0000 C   0  0  0  0  0  0  0  0  0  0  0  0
    0.0000    0.8250    0.0000 C   0  0  0  0  0  0  0  0  0  0  0  0
    2.1434   -0.4125    0.0000 C   0  0  0  0  0  0  0  0  0  0  0  0
    2.1434    1.2375    0.0000 C   0  0  0  0  0  0  0  0  0  0  0  0
    2.1434    2.0625    0.0000 C   0  0  0  0  0  0  0  0  0  0  0  0
    2.8579    2.4750    0.0000 C   0  0  0  0  0  0  0  0  0  0  0  0
    2.8579    3.3000    0.0000 C   0  0  0  0  0  0  0  0  0  0  0  0
    3.5724    3.7125    0.0000 C   0  0  0  0  0  0  0  0  0  0  0  0
    3.5724    4.5375    0.0000 C   0  0  0  0  0  0  0  0  0  0  0  0
    4.2868    4.9500    0.0000 C   0  0  0  0  0  0  0  0  0  0  0  0
    4.2868    5.7750    0.0000 C   0  0  0  0  0  0  0  0  0  0  0  0
    3.5724    6.1875    0.0000 C   0  0  0  0  0  0  0  0  0  0  0  0
    2.8579    5.7750    0.0000 O   0  0  0  0  0  0  0  0  0  0  0  0
    3.5724    7.0125    0.0000 O   0  0  0  0  0  0  0  0  0  0  0  0
    5.0013    4.5375    0.0000 C   0  0  0  0  0  0  0  0  0  0  0  0
    3.5724    2.0625    0.0000 C   0  0  0  0  0  0  0  0  0  0  0  0
    1.2448    1.8695    0.0000 C   0  0  0  0  0  0  0  0  0  0  0  0
  1  2  1  0  0  0  0
  2  3  1  0  0  0  0
  3  4  2  0  0  0  0
  4  5  1  0  0  0  0
  5  6  1  0  0  0  0
  6  7  1  0  0  0  0
  2  7  1  0  0  0  0
  4  8  1  0  0  0  0
  3  9  1  0  0  0  0
  9 10  2  0  0  0  0
 10 11  1  0  0  0  0
 11 12  2  0  0  0  0
 12 13  1  0  0  0  0
 13 14  2  0  0  0  0
 14 15  1  0  0  0  0
 15 16  2  0  0  0  0
 16 17  1  0  0  0  0
 17 18  1  0  0  0  0
 17 19  2  0  0  0  0
 15 20  1  0  0  0  0
 11 21  1  0  0  0  0
  2 22  1  0  0  0  0
M  END
>  <Name>
Isotretinoin

>  <CAS>
4759-48-2

>  <Formula>
C20H28O2

>  <MolWt>
300.44 

>  <Bioactivity>
It was developed to be used as a chemotherapy medication for the treatment of brain cancer, pancreatic cancer and more.

>  <Pathways>
Metabolism

>  <Target>
RXR/RAR inhibitor

>  <Receptor>
RAR

>  <Reference>
1. Webster WS, et al. J Craniofac Genet Dev Biol, 1986, 6(3), 211-222.


$$$$
131-48-6
  Mrv1561503291623562D          

 21 21  0  0  0  0            999 V2000
    1.4289   -1.6500    0.0000 C   0  0  0  0  0  0  0  0  0  0  0  0
    2.1434   -1.2375    0.0000 C   0  0  0  0  0  0  0  0  0  0  0  0
    2.1434   -0.4125    0.0000 C   0  0  0  0  0  0  0  0  0  0  0  0
    1.4289   -0.0000    0.0000 C   0  0  0  0  0  0  0  0  0  0  0  0
    0.7145   -0.4125    0.0000 C   0  0  0  0  0  0  0  0  0  0  0  0
   -0.0000   -0.0000    0.0000 C   0  0  0  0  0  0  0  0  0  0  0  0
   -0.0000    0.8250    0.0000 C   0  0  0  0  0  0  0  0  0  0  0  0
    0.7145    1.2375    0.0000 C   0  0  0  0  0  0  0  0  0  0  0  0
    1.4289    0.8250    0.0000 O   0  0  0  0  0  0  0  0  0  0  0  0
    0.3272    1.9659    0.0000 C   0  0  0  0  0  0  0  0  0  0  0  0
   -0.4973    1.9947    0.0000 O   0  0  0  0  0  0  0  0  0  0  0  0
    0.7643    2.6656    0.0000 O   0  0  0  0  0  0  0  0  0  0  0  0
    1.1018    1.9659    0.0000 O   0  0  0  0  0  0  0  0  0  0  0  0
   -0.7145   -0.4125    0.0000 O   0  0  0  0  0  0  0  0  0  0  0  0
    0.7145   -1.2375    0.0000 N   0  0  0  0  0  0  0  0  0  0  0  0
   -0.0000   -1.6500    0.0000 C   0  0  0  0  0  0  0  0  0  0  0  0
   -0.0000   -2.4750    0.0000 C   0  0  0  0  0  0  0  0  0  0  0  0
   -0.7145   -1.2375    0.0000 O   0  0  0  0  0  0  0  0  0  0  0  0
    2.8579   -0.0000    0.0000 O   0  0  0  0  0  0  0  0  0  0  0  0
    2.8579   -1.6500    0.0000 O   0  0  0  0  0  0  0  0  0  0  0  0
    1.4289   -2.4750    0.0000 O   0  0  0  0  0  0  0  0  0  0  0  0
  1  2  1  0  0  0  0
  2  3  1  0  0  0  0
  3  4  1  0  0  0  0
  4  5  1  0  0  0  0
  5  6  1  0  0  0  0
  6  7  1  0  0  0  0
  7  8  1  0  0  0  0
  8  9  1  0  0  0  0
  4  9  1  0  0  0  0
  8 10  1  0  0  0  0
 10 11  1  0  0  0  0
 10 12  2  0  0  0  0
  8 13  1  0  0  0  0
  6 14  1  0  0  0  0
  5 15  1  0  0  0  0
 15 16  1  0  0  0  0
 16 17  1  0  0  0  0
 16 18  2  0  0  0  0
  3 19  1  0  0  0  0
  2 20  1  0  0  0  0
  1 21  1  0  0  0  0
M  END
>  <Name>
N-Acetylneuraminic acid

>  <CAS>
131-48-6

>  <Formula>
C11H19NO9

>  <MolWt>
309.27 

>  <Bioactivity>
N-Acetylneuraminic acid (Neu5Ac or NANA) is the predominant sialic acid found in mammalian cells.

>  <Pathways>
Others

>  <Target>
Others

>  <Receptor>
Others

>  <Reference>
1. Severi E, et al. Microbiology. 2007 Sep;153(Pt 9):2817-22.

$$$$
T1640
  Mrv1561503291623562D          

 24 27  0  0  0  0            999 V2000
   -0.0000    0.0000    0.0000 C   0  0  0  0  0  0  0  0  0  0  0  0
   -0.7145   -0.4125    0.0000 C   0  0  0  0  0  0  0  0  0  0  0  0
   -1.4289    0.0000    0.0000 N   0  0  0  0  0  0  0  0  0  0  0  0
   -2.1434   -0.4125    0.0000 C   0  0  0  0  0  0  0  0  0  0  0  0
   -2.8579   -0.0000    0.0000 C   0  0  0  0  0  0  0  0  0  0  0  0
   -2.8579    0.8250    0.0000 N   0  0  0  0  0  0  0  0  0  0  0  0
   -2.1434    1.2375    0.0000 C   0  0  0  0  0  0  0  0  0  0  0  0
   -1.4289    0.8250    0.0000 C   0  0  0  0  0  0  0  0  0  0  0  0
   -0.7145   -1.2375    0.0000 C   0  0  0  0  0  0  0  0  0  0  0  0
   -0.0000   -1.6500    0.0000 C   0  0  0  0  0  0  0  0  0  0  0  0
    0.7145   -1.2375    0.0000 C   0  0  0  0  0  0  0  0  0  0  0  0
    0.7145   -0.4125    0.0000 C   0  0  0  0  0  0  0  0  0  0  0  0
    1.4289    0.0000    0.0000 N   0  0  0  0  0  0  0  0  0  0  0  0
    1.4289    0.8250    0.0000 C   0  0  0  0  0  0  0  0  0  0  0  0
    1.0164    1.5395    0.0000 C   0  0  0  0  0  0  0  0  0  0  0  0
    1.8414    1.5395    0.0000 C   0  0  0  0  0  0  0  0  0  0  0  0
    2.1434   -0.4125    0.0000 C   0  0  0  0  0  0  0  0  0  0  0  0
    2.1434   -1.2375    0.0000 C   0  0  0  0  0  0  0  0  0  0  0  0
    2.8579   -1.6500    0.0000 C   0  0  0  0  0  0  0  0  0  0  0  0
    3.5724   -1.2375    0.0000 O   0  0  0  0  0  0  0  0  0  0  0  0
    2.8579   -2.4750    0.0000 O   0  0  0  0  0  0  0  0  0  0  0  0
    1.4289   -1.6500    0.0000 C   0  0  0  0  0  0  0  0  0  0  0  0
    1.4289   -2.4750    0.0000 O   0  0  0  0  0  0  0  0  0  0  0  0
   -1.4289   -1.6500    0.0000 F   0  0  0  0  0  0  0  0  0  0  0  0
  1  2  2  0  0  0  0
  2  3  1  0  0  0  0
  3  4  1  0  0  0  0
  4  5  1  0  0  0  0
  5  6  1  0  0  0  0
  6  7  1  0  0  0  0
  7  8  1  0  0  0  0
  3  8  1  0  0  0  0
  2  9  1  0  0  0  0
  9 10  2  0  0  0  0
 10 11  1  0  0  0  0
 11 12  2  0  0  0  0
  1 12  1  0  0  0  0
 12 13  1  0  0  0  0
 13 14  1  0  0  0  0
 14 15  1  0  0  0  0
 15 16  1  0  0  0  0
 14 16  1  0  0  0  0
 13 17  1  0  0  0  0
 17 18  2  0  0  0  0
 18 19  1  0  0  0  0
 19 20  1  0  0  0  0
 19 21  2  0  0  0  0
 18 22  1  0  0  0  0
 11 22  1  0  0  0  0
 22 23  2  0  0  0  0
  9 24  1  0  0  0  0
M  END
>  <Name>
Ciprofloxacin

>  <CAS>
85721-33-1

>  <Formula>
C17H18FN3O3

>  <MolWt>
331.34 

>  <Bioactivity>
Ciprofloxacin is a broad-spectrum antimicrobial carboxyfluoroquinoline.


>  <Pathways>
DNA Damage/DNA Repair;Microbiology & Virology

>  <Target>
Topoisomerase Inhibitor

>  <Receptor>
Topoisomerase II , Topoisomerase IV

>  <Reference>
1. Wise R, et al. Antimicrob Agents Chemother, 1983, 23(4), 559-564.

$$$$
153504-70-2
  Mrv1561503291623562D          

 31 30  0  0  1  0            999 V2000
   -1.1213   -0.8379    0.0000 N   0  0  0  0  0  0  0  0  0  0  0  0
   -0.2977   -0.7911    0.0000 C   0  0  0  0  0  0  0  0  0  0  0  0
    0.0737   -0.0544    0.0000 C   0  0  0  0  0  0  0  0  0  0  0  0
    0.5200    0.6395    0.0000 O   0  0  0  0  0  0  0  0  0  0  0  0
    1.3178    0.4294    0.0000 C   0  0  0  0  0  0  0  0  0  0  0  0
    1.3645   -0.3942    0.0000 S   0  0  0  0  0  0  0  0  0  0  0  0
    0.5956   -0.6932    0.0000 C   0  0  0  0  0  0  0  0  0  0  0  0
    1.9566    0.9514    0.0000 C   0  0  0  0  0  0  0  0  0  0  0  0
   -0.3787    0.6356    0.0000 C   0  0  0  0  0  0  0  0  0  0  0  0
   -1.2024    0.5888    0.0000 C   0  0  0  0  0  0  0  0  0  0  0  0
   -1.5737   -0.1479    0.0000 C   0  0  0  0  0  0  0  0  0  0  0  0
   -0.5035    0.0825    0.0000 C   0  0  0  0  0  0  0  0  0  0  0  0
   -0.7510   -0.4086    0.0000 C   0  0  0  0  0  0  0  0  0  0  0  0
    5.9585   -0.0668    0.0000 C   0  0  0  0  0  0  0  0  0  0  0  0
    6.4952    0.5598    0.0000 O   0  0  0  0  0  0  0  0  0  0  0  0
    7.2569    0.2430    0.0000 C   0  0  0  0  0  0  0  0  0  0  0  0
    7.1911   -0.5794    0.0000 S   0  0  0  0  0  0  0  0  0  0  0  0
    6.3886   -0.7708    0.0000 C   0  0  0  0  0  0  0  0  0  0  0  0
    7.9610    0.6731    0.0000 C   0  0  0  0  0  0  0  0  0  0  0  0
    5.4903   -0.7461    0.0000 C   0  0  0  0  0  0  0  0  0  0  0  0
    4.6679   -0.6802    0.0000 C   0  0  0  0  0  0  0  0  0  0  0  0
    4.3138    0.0649    0.0000 C   0  0  0  0  0  0  0  0  0  0  0  0
    4.7820    0.7442    0.0000 N   0  0  0  0  0  0  0  0  0  0  0  0
    5.6044    0.6783    0.0000 C   0  0  0  0  0  0  0  0  0  0  0  0
    4.8939    0.1884    0.0000 C   0  0  0  0  0  0  0  0  0  0  0  0
    5.1300   -0.3083    0.0000 C   0  0  0  0  0  0  0  0  0  0  0  0
   11.1431    0.0000    0.0000 H   0  3  0  0  0  0  0  0  0  0  0  0
    0.4125   -2.4879    0.0000 H   0  3  0  0  0  0  0  0  0  0  0  0
   10.3181    0.0000    0.0000 Cl  0  5  0  0  0  0  0  0  0  0  0  0
   -0.4125   -2.4879    0.0000 Cl  0  5  0  0  0  0  0  0  0  0  0  0
    2.7696   -2.4879    0.0000 O   0  0  0  0  0  0  0  0  0  0  0  0
  1  2  1  0  0  0  0
  2  3  1  0  0  0  0
  3  4  1  0  0  0  0
  4  5  1  0  0  0  0
  5  6  1  0  0  0  0
  6  7  1  0  0  0  0
  3  7  1  0  0  0  0
  5  8  1  0  0  0  0
  3  9  1  0  0  0  0
  9 10  1  0  0  0  0
 10 11  1  0  0  0  0
  1 11  1  0  0  0  0
  9 12  1  0  0  0  0
 12 13  1  0  0  0  0
  1 13  1  0  0  0  0
 14 15  1  0  0  0  0
 15 16  1  0  0  0  0
 16 17  1  0  0  0  0
 17 18  1  0  0  0  0
 14 18  1  0  0  0  0
 16 19  1  0  0  0  0
 14 20  1  0  0  0  0
 20 21  1  0  0  0  0
 21 22  1  0  0  0  0
 22 23  1  0  0  0  0
 23 24  1  0  0  0  0
 14 24  1  0  0  0  0
 23 25  1  0  0  0  0
 25 26  1  0  0  0  0
 20 26  1  0  0  0  0
M  CHG  4  27   1  28   1  29  -1  30  -1
M  END
>  <Name>
Cevimeline HCl hemihydrate

>  <CAS>
153504-70-2

>  <Formula>
C10H18ClNOS

>  <MolWt>
235.77 

>  <Bioactivity>
Cevimeline hydrochloride hemihydrate, a  novel muscarinic receptor agonist,  is a candidate therapeutic drug for xerostomia in Sjogren's syndrome.

>  <Pathways>
Neuroscience

>  <Target>
AChR antagonist

>  <Receptor>
mAChR

>  <Reference>
1. Washio Takuo, et al. Arzneimittel-Forschung (2003), 53(2), 80-86.

$$$$
T1589
  Mrv1561503291623562D          

  7  7  0  0  0  0            999 V2000
    0.5678    1.9393    0.0000 O   0  0  0  0  0  0  0  0  0  0  0  0
    0.5678    1.1143    0.0000 C   0  0  0  0  0  0  0  0  0  0  0  0
    1.2352    0.6294    0.0000 C   0  0  0  0  0  0  0  0  0  0  0  0
    0.9803   -0.1553    0.0000 C   0  0  0  0  0  0  0  0  0  0  0  0
    0.1553   -0.1553    0.0000 O   0  0  0  0  0  0  0  0  0  0  0  0
   -0.0997    0.6294    0.0000 N   0  0  0  0  0  0  0  0  0  0  0  0
    2.0198    0.8843    0.0000 N   0  0  0  0  0  0  0  0  0  0  0  0
  1  2  2  0  0  0  0
  2  3  1  0  0  0  0
  3  4  1  0  0  0  0
  4  5  1  0  0  0  0
  5  6  1  0  0  0  0
  2  6  1  0  0  0  0
  3  7  1  0  0  0  0
M  END
>  <Name>
D-Cycloserine

>  <CAS>
68-41-7

>  <Formula>
C3H6N2O2

>  <MolWt>
102.09 

>  <Bioactivity>
Antibiotic substance produced by Streptomyces garyphalus.


>  <Pathways>
Microbiology & Virology

>  <Target>
Antibiotic

>  <Receptor>
D-alanine--D-alanine ligase A

>  <Reference>
1. Noda M, et al. J Biol Chem. 2004 Oct 29; 279(44): 46143-52. 

$$$$
63968-64-9
  Mrv1561503291623562D          

 20 23  0  0  1  0            999 V2000
    3.4650    1.5512    0.0000 C   0  0  1  0  0  0  0  0  0  0  0  0
    3.1353    0.8206    0.0000 C   0  0  1  0  0  0  0  0  0  0  0  0
    4.0706    1.0707    0.0000 O   0  0  0  0  0  0  0  0  0  0  0  0
    4.8834    0.7855    0.0000 C   0  0  2  0  0  0  0  0  0  0  0  0
    5.5538    0.3048    0.0000 C   0  0  0  0  0  0  0  0  0  0  0  0
    4.3836    0.0858    0.0000 O   0  0  0  0  0  0  0  0  0  0  0  0
    3.7137    0.6203    0.0000 O   0  0  0  0  0  0  0  0  0  0  0  0
    5.3873    1.4853    0.0000 C   0  0  0  0  0  0  0  0  0  0  0  0
    4.9031    2.1891    0.0000 C   0  0  0  0  0  0  0  0  0  0  0  0
    4.0448    2.2459    0.0000 C   0  0  1  0  0  0  0  0  0  0  0  0
    3.9211    3.0950    0.0000 C   0  0  2  0  0  0  0  0  0  0  0  0
    4.5995    3.5645    0.0000 C   0  0  0  0  0  0  0  0  0  0  0  0
    3.1874    3.5003    0.0000 C   0  0  0  0  0  0  0  0  0  0  0  0
    2.6370    2.8833    0.0000 C   0  0  0  0  0  0  0  0  0  0  0  0
    2.7250    2.0422    0.0000 C   0  0  1  0  0  0  0  0  0  0  0  0
    1.9091    1.7677    0.0000 C   0  0  1  0  0  0  0  0  0  0  0  0
    1.3408    2.3658    0.0000 C   0  0  0  0  0  0  0  0  0  0  0  0
    1.5973    0.9773    0.0000 C   0  0  0  0  0  0  0  0  0  0  0  0
    2.3070    0.5237    0.0000 O   0  0  0  0  0  0  0  0  0  0  0  0
    0.8124    0.7231    0.0000 O   0  0  0  0  0  0  0  0  0  0  0  0
  1  2  1  0  0  0  0
  2  3  1  1  0  0  0
  3  4  1  0  0  0  0
  4  5  1  6  0  0  0
  4  6  1  0  0  0  0
  6  7  1  0  0  0  0
  1  7  1  1  0  0  0
  4  8  1  0  0  0  0
  8  9  1  0  0  0  0
 10  9  1  6  0  0  0
  1 10  1  0  0  0  0
 10 11  1  0  0  0  0
 11 12  1  1  0  0  0
 11 13  1  0  0  0  0
 13 14  1  0  0  0  0
 15 14  1  6  0  0  0
  1 15  1  0  0  0  0
 15 16  1  0  0  0  0
 16 17  1  6  0  0  0
 16 18  1  0  0  0  0
 18 19  1  0  0  0  0
  2 19  1  0  0  0  0
 18 20  2  0  0  0  0
M  END
>  <Name>
Artemisinin

>  <CAS>
63968-64-9

>  <Formula>
C15H22O5

>  <MolWt>
282.33 

>  <Bioactivity>
Artemisinin is a drug used to treat multi-drug resistant strains of falciparum malaria (as well as increasingly vivax malaria). The compound is isolated from the plant Artemisia annua, a herb described in Chinese traditional medicine, though it is usually chemically modified and combined with other medications. The drug is also being studied as a treatment for cancer.

>  <Pathways>
Others

>  <Target>
Others

>  <Receptor>
Others

>  <Reference>
1. Mbengue A, et al. Nature. 2015 Apr 30;520(7549):683-7. 

$$$$
826-39-1
  Mrv1561503291623562D          

 14 13  0  0  0  0            999 V2000
    0.4125    0.0000    0.0000 H   0  3  0  0  0  0  0  0  0  0  0  0
    3.0518    0.1664    0.0000 C   0  0  0  0  0  0  0  0  0  0  0  0
    3.8643    0.3096    0.0000 C   0  0  0  0  0  0  0  0  0  0  0  0
    3.5821    1.0849    0.0000 N   0  0  0  0  0  0  0  0  0  0  0  0
    2.7696    1.2281    0.0000 C   0  0  0  0  0  0  0  0  0  0  0  0
    3.8643   -0.5154    0.0000 C   0  0  0  0  0  0  0  0  0  0  0  0
    4.5787   -0.9279    0.0000 C   0  0  0  0  0  0  0  0  0  0  0  0
    4.3725   -0.1029    0.0000 C   0  0  0  0  0  0  0  0  0  0  0  0
    4.5787    0.7221    0.0000 C   0  0  0  0  0  0  0  0  0  0  0  0
    5.2932    0.3096    0.0000 C   0  0  0  0  0  0  0  0  0  0  0  0
    5.2932   -0.5154    0.0000 C   0  0  0  0  0  0  0  0  0  0  0  0
    3.0398   -0.5442    0.0000 C   0  0  0  0  0  0  0  0  0  0  0  0
    3.4271   -1.2150    0.0000 C   0  0  0  0  0  0  0  0  0  0  0  0
   -0.4125    0.0000    0.0000 Cl  0  5  0  0  0  0  0  0  0  0  0  0
  2  3  1  0  0  0  0
  3  4  1  0  0  0  0
  4  5  1  0  0  0  0
  3  6  1  0  0  0  0
  6  7  1  0  0  0  0
  7  8  1  0  0  0  0
  8  9  1  0  0  0  0
  3  9  1  0  0  0  0
  9 10  1  0  0  0  0
 10 11  1  0  0  0  0
  7 11  1  0  0  0  0
  6 12  1  0  0  0  0
  6 13  1  0  0  0  0
M  CHG  2   1   1  14  -1
M  END
>  <Name>
Mecamylamine HCl 

>  <CAS>
826-39-1

>  <Formula>
C11H22ClN

>  <MolWt>
203.75 

>  <Bioactivity>
A nicotinic antagonist that is well absorbed from the gastrointestinal tract and crosses the blood-brain barrier. Mecamylamine has been used as a ganglionic blocker in treating hypertension, but, like most ganglionic blockers, is more often used now as a research tool. 

>  <Pathways>
Neuroscience

>  <Target>
AChR antagonist

>  <Receptor>
Neuronal AChR

>  <Reference>
1. Struthers AM, et al. Pharmacol Biochem Behav. 2009 Dec;94(2):319-28.

$$$$
68475-42-3
  Mrv1561503291623562D          

 16 18  0  0  0  0            999 V2000
    4.0668    0.6979    0.0000 C   0  0  0  0  0  0  0  0  0  0  0  0
    4.7812    1.1104    0.0000 C   0  0  0  0  0  0  0  0  0  0  0  0
    4.7812    1.9354    0.0000 C   0  0  0  0  0  0  0  0  0  0  0  0
    4.0668    2.3479    0.0000 C   0  0  0  0  0  0  0  0  0  0  0  0
    4.0668    3.1729    0.0000 Cl  0  0  0  0  0  0  0  0  0  0  0  0
    3.3523    1.9354    0.0000 C   0  0  0  0  0  0  0  0  0  0  0  0
    3.3523    1.1104    0.0000 C   0  0  0  0  0  0  0  0  0  0  0  0
    2.6378    0.6979    0.0000 N   0  0  0  0  0  0  0  0  0  0  0  0
    1.9233    1.1104    0.0000 C   0  0  0  0  0  0  0  0  0  0  0  0
    1.1387    0.8555    0.0000 N   0  0  0  0  0  0  0  0  0  0  0  0
    0.6538    1.5229    0.0000 C   0  0  0  0  0  0  0  0  0  0  0  0
   -0.1712    1.5229    0.0000 O   0  0  0  0  0  0  0  0  0  0  0  0
    1.1387    2.1904    0.0000 C   0  0  0  0  0  0  0  0  0  0  0  0
    1.9233    1.9354    0.0000 N   0  0  0  0  0  0  0  0  0  0  0  0
    2.6378    2.3479    0.0000 C   0  0  0  0  0  0  0  0  0  0  0  0
    5.4957    2.3479    0.0000 Cl  0  0  0  0  0  0  0  0  0  0  0  0
  1  2  2  0  0  0  0
  2  3  1  0  0  0  0
  3  4  2  0  0  0  0
  4  5  1  0  0  0  0
  4  6  1  0  0  0  0
  6  7  2  0  0  0  0
  1  7  1  0  0  0  0
  7  8  1  0  0  0  0
  8  9  1  0  0  0  0
  9 10  2  0  0  0  0
 10 11  1  0  0  0  0
 11 12  2  0  0  0  0
 11 13  1  0  0  0  0
 13 14  1  0  0  0  0
  9 14  1  0  0  0  0
 14 15  1  0  0  0  0
  6 15  1  0  0  0  0
  3 16  1  0  0  0  0
M  END
>  <Name>
Anagrelide

>  <CAS>
68475-42-3

>  <Formula>
C10H7Cl2N3O.HCl

>  <MolWt>
256.09 

>  <Bioactivity>
Anagrelide is a Platelet-reducing Agent. The mechanism of action of anagrelide is as a Phosphodiesterase 3 Inhibitor.

>  <Pathways>
Metabolism

>  <Target>
PDE inhibitor

>  <Receptor>
PDE

>  <Reference>
1. Venuti MC, et al. J Med Chem. 1988 Nov; 31(11): 2136-45. 

$$$$
T2386
  Mrv1561503291623562D          

 14 15  0  0  0  0            999 V2000
    1.4289   -1.6500    0.0000 C   0  0  0  0  0  0  0  0  0  0  0  0
    1.4289   -2.4750    0.0000 C   0  0  0  0  0  0  0  0  0  0  0  0
    0.7145   -2.8875    0.0000 C   0  0  0  0  0  0  0  0  0  0  0  0
   -0.0000   -2.4750    0.0000 C   0  0  0  0  0  0  0  0  0  0  0  0
   -0.0000   -1.6500    0.0000 C   0  0  0  0  0  0  0  0  0  0  0  0
    0.7145   -1.2375    0.0000 C   0  0  0  0  0  0  0  0  0  0  0  0
    0.7145   -0.4125    0.0000 N   0  0  0  0  0  0  0  0  0  0  0  0
    0.0000    0.0000    0.0000 C   0  0  0  0  0  0  0  0  0  0  0  0
    0.0000    0.8250    0.0000 C   0  0  0  0  0  0  0  0  0  0  0  0
    0.7145    1.2375    0.0000 C   0  0  0  0  0  0  0  0  0  0  0  0
    1.4289    0.8250    0.0000 C   0  0  0  0  0  0  0  0  0  0  0  0
    1.4289   -0.0000    0.0000 C   0  0  0  0  0  0  0  0  0  0  0  0
    2.1434    1.2375    0.0000 C   0  0  0  0  0  0  0  0  0  0  0  0
   -0.7145   -0.4125    0.0000 O   0  0  0  0  0  0  0  0  0  0  0  0
  1  2  2  0  0  0  0
  2  3  1  0  0  0  0
  3  4  2  0  0  0  0
  4  5  1  0  0  0  0
  5  6  2  0  0  0  0
  1  6  1  0  0  0  0
  6  7  1  0  0  0  0
  7  8  1  0  0  0  0
  8  9  1  0  0  0  0
  9 10  2  0  0  0  0
 10 11  1  0  0  0  0
 11 12  2  0  0  0  0
  7 12  1  0  0  0  0
 11 13  1  0  0  0  0
  8 14  2  0  0  0  0
M  END
>  <Name>
Pirfenidone

>  <CAS>
53179-13-8

>  <Formula>
C12H11NO

>  <MolWt>
185.22 

>  <Bioactivity>
Pirfenidone is an inhibitor for TGF-? production and TGF-? stimulated collagen production, reduces production of TNF-? and IL-1?, and also has anti-fibrotic and anti-inflammatory properties. Phase 3.

>  <Pathways>
Immunology/Inflammation

>  <Target>
TGF-beta/Smad inhibitor

>  <Receptor>
TGF-?

>  <Reference>
1. Nakazato H, et al. Eur J Pharmacol, 2002, 446(1-3), 177-185.

$$$$
14605-22-2
  Mrv1561503291623562D          

 34 37  0  0  1  0            999 V2000
    0.2943   -3.0746    0.0000 C   0  0  2  0  0  0  0  0  0  0  0  0
   -0.5127   -2.9031    0.0000 C   0  0  0  0  0  0  0  0  0  0  0  0
   -0.7676   -2.1184    0.0000 C   0  0  0  0  0  0  0  0  0  0  0  0
   -0.2156   -1.5053    0.0000 C   0  0  0  0  0  0  0  0  0  0  0  0
   -0.4705   -0.7207    0.0000 C   0  0  2  0  0  0  0  0  0  0  0  0
   -1.2775   -0.5492    0.0000 C   0  0  2  0  0  0  0  0  0  0  0  0
   -1.8296   -1.1623    0.0000 C   0  0  0  0  0  0  0  0  0  0  0  0
   -1.5746   -1.9469    0.0000 C   0  0  2  0  0  0  0  0  0  0  0  0
   -2.1266   -2.5600    0.0000 O   0  0  0  0  0  0  0  0  0  0  0  0
   -1.5325    0.2354    0.0000 C   0  0  0  0  0  0  0  0  0  0  0  0
   -0.9804    0.8485    0.0000 C   0  0  2  0  0  0  0  0  0  0  0  0
   -1.2354    1.6331    0.0000 O   0  0  0  0  0  0  0  0  0  0  0  0
   -0.1735    0.6770    0.0000 C   0  0  0  0  0  0  0  0  0  0  0  0
    0.0815   -0.1076    0.0000 C   0  0  0  0  0  0  0  0  0  0  0  0
    0.3364   -0.8922    0.0000 C   0  0  0  0  0  0  0  0  0  0  0  0
    0.5914   -1.6769    0.0000 C   0  0  0  0  0  0  0  0  0  0  0  0
    0.8463   -2.4615    0.0000 C   0  0  0  0  0  0  0  0  0  0  0  0
   -0.9252   -3.6175    0.0000 C   0  0  0  0  0  0  0  0  0  0  0  0
   -0.3732   -4.2306    0.0000 C   0  0  0  0  0  0  0  0  0  0  0  0
    0.3805   -3.8951    0.0000 C   0  0  2  0  0  0  0  0  0  0  0  0
    1.0950   -4.3076    0.0000 C   0  0  1  0  0  0  0  0  0  0  0  0
    1.8094   -3.8951    0.0000 C   0  0  0  0  0  0  0  0  0  0  0  0
    2.5239   -4.3076    0.0000 C   0  0  0  0  0  0  0  0  0  0  0  0
    3.2384   -3.8951    0.0000 C   0  0  0  0  0  0  0  0  0  0  0  0
    3.2384   -3.0701    0.0000 O   0  0  0  0  0  0  0  0  0  0  0  0
    3.9529   -4.3076    0.0000 N   0  0  0  0  0  0  0  0  0  0  0  0
    4.6673   -3.8951    0.0000 C   0  0  0  0  0  0  0  0  0  0  0  0
    5.3818   -4.3076    0.0000 C   0  0  0  0  0  0  0  0  0  0  0  0
    6.0963   -3.8951    0.0000 S   0  0  0  0  0  0  0  0  0  0  0  0
    6.8107   -3.4826    0.0000 O   0  0  0  0  0  0  0  0  0  0  0  0
    6.5088   -4.6095    0.0000 O   0  0  0  0  0  0  0  0  0  0  0  0
    5.6838   -3.1806    0.0000 O   0  0  0  0  0  0  0  0  0  0  0  0
    1.0950   -5.1326    0.0000 C   0  0  0  0  0  0  0  0  0  0  0  0
    1.0789   -3.3295    0.0000 C   0  0  0  0  0  0  0  0  0  0  0  0
  1  2  1  0  0  0  0
  2  3  1  0  0  0  0
  3  4  1  0  0  0  0
  4  5  1  0  0  0  0
  5  6  1  0  0  0  0
  6  7  1  0  0  0  0
  7  8  1  0  0  0  0
  3  8  1  0  0  0  0
  8  9  1  1  0  0  0
  6 10  1  6  0  0  0
 10 11  1  0  0  0  0
 11 12  1  6  0  0  0
 11 13  1  0  0  0  0
 13 14  1  0  0  0  0
  5 14  1  0  0  0  0
  5 15  1  1  0  0  0
  4 16  1  0  0  0  0
 16 17  1  0  0  0  0
  1 17  1  0  0  0  0
  2 18  1  0  0  0  0
 18 19  1  0  0  0  0
 19 20  1  0  0  0  0
  1 20  1  0  0  0  0
 20 21  1  1  0  0  0
 21 22  1  0  0  0  0
 22 23  1  0  0  0  0
 23 24  1  0  0  0  0
 24 25  2  0  0  0  0
 24 26  1  0  0  0  0
 26 27  1  0  0  0  0
 27 28  1  0  0  0  0
 28 29  1  0  0  0  0
 29 30  2  0  0  0  0
 29 31  2  0  0  0  0
 29 32  1  0  0  0  0
 21 33  1  1  0  0  0
  1 34  1  1  0  0  0
M  END
>  <Name>
Tauroursodeoxycholic Acid

>  <CAS>
14605-22-2

>  <Formula>
C26H45NO6S

>  <MolWt>
499.70 

>  <Bioactivity>
Tauroursodeoxycholic acid is the more hydrophilic form of ursodeoxycholic acid, which is the more abundant naturally produced bile acid in humans. Tauroursodeoxycholic acid, on the other hand, is produced abundantly in bears and has been used for centuries as a natural remedy in some Asian countries. Tauroursodeoxycholic acid is being investigated for use in several conditions such as Primary Biliary Cirrhosis (PBC), insulin resistance, amyloidosis, Cystic Fibrosis, Cholestasis, and Amyotrophic Lateral Sclerosis. The only completed clinical trial thus far is a phase III clinical trial comparing tauroursodeoxycholic acid and ursofalk in PBC adult patients, but as of June 2013 no results of this trial have been published.

>  <Pathways>
Metabolism

>  <Target>
CYP inhibitor

>  <Receptor>
CYP3A

>  <Reference>
1. Paolini M, et al. Hepatology. 1999 Sep;30(3):730-9. 

$$$$
138844-81-2
  Mrv1561503291623562D          

 20 18  0  0  0  0            999 V2000
    1.7605    1.8414    0.0000 C   0  0  0  0  0  0  0  0  0  0  0  0
    2.4750    1.4289    0.0000 C   0  0  0  0  0  0  0  0  0  0  0  0
    3.1895    1.8414    0.0000 C   0  0  0  0  0  0  0  0  0  0  0  0
    3.9039    1.4289    0.0000 C   0  0  0  0  0  0  0  0  0  0  0  0
    4.6184    1.8414    0.0000 C   0  0  0  0  0  0  0  0  0  0  0  0
    5.3329    1.4289    0.0000 N   0  0  0  0  0  0  0  0  0  0  0  0
    5.3329    0.6039    0.0000 C   0  0  0  0  0  0  0  0  0  0  0  0
    6.0474    1.8414    0.0000 C   0  0  0  0  0  0  0  0  0  0  0  0
    6.7618    1.4289    0.0000 C   0  0  0  0  0  0  0  0  0  0  0  0
    7.4763    1.8414    0.0000 C   0  0  0  0  0  0  0  0  0  0  0  0
    8.1908    2.2539    0.0000 O   0  0  0  0  0  0  0  0  0  0  0  0
    7.8888    1.1270    0.0000 P   0  0  0  0  0  0  0  0  0  0  0  0
    8.3013    0.4125    0.0000 O   0  0  0  0  0  0  0  0  0  0  0  0
    7.1743    0.7145    0.0000 O   0  0  0  0  0  0  0  0  0  0  0  0
    8.6033    1.5395    0.0000 O   0  0  0  0  0  0  0  0  0  0  0  0
    7.0638    2.5559    0.0000 P   0  0  0  0  0  0  0  0  0  0  0  0
    6.3493    2.1434    0.0000 O   0  0  0  0  0  0  0  0  0  0  0  0
    6.6513    3.2704    0.0000 O   0  0  0  0  0  0  0  0  0  0  0  0
    7.7783    2.9684    0.0000 O   0  5  0  0  0  0  0  0  0  0  0  0
    8.4927    3.3809    0.0000 Na  0  3  0  0  0  0  0  0  0  0  0  0
  1  2  1  0  0  0  0
  2  3  1  0  0  0  0
  3  4  1  0  0  0  0
  4  5  1  0  0  0  0
  5  6  1  0  0  0  0
  6  7  1  0  0  0  0
  6  8  1  0  0  0  0
  8  9  1  0  0  0  0
  9 10  1  0  0  0  0
 10 11  1  0  0  0  0
 10 12  1  0  0  0  0
 12 13  2  0  0  0  0
 12 14  1  0  0  0  0
 12 15  1  0  0  0  0
 10 16  1  0  0  0  0
 16 17  2  0  0  0  0
 16 18  1  0  0  0  0
 16 19  1  0  0  0  0
M  CHG  2  19  -1  20   1
M  END
>  <Name>
Ibandronate sodium

>  <CAS>
138844-81-2

>  <Formula>
C9H23NO7P2.Na.H2O

>  <MolWt>
341.21 

>  <Bioactivity>
Ibandronate is a nitrogen-containing bisphosphonate in the same class as alendronate and risedronate. Ibandronate inhibits osteoclast-mediated bone resorption. All of the bisphosphonates prevent the breakdown of bone by bone cells called osteoclasts. In persons who are at high risk for osteoporosis, bisphosphonates not only result in increased amounts of bone and bone strength, they also reduce the risk of hip fractures and other bone fractures.

>  <Pathways>
Metabolism

>  <Target>
HAP antagonist

>  <Receptor>
FPS;HAP

>  <Reference>
1. Dunford JE, et al. J Pharmacol Exp Ther. 2001 Feb; 296(2):235-42.

$$$$
T0984
  Mrv1561503291623562D          

  9  9  0  0  0  0            999 V2000
    0.7145    2.0625    0.0000 O   0  0  0  0  0  0  0  0  0  0  0  0
    0.7145    1.2375    0.0000 C   0  0  0  0  0  0  0  0  0  0  0  0
    1.4289    0.8250    0.0000 C   0  0  0  0  0  0  0  0  0  0  0  0
    1.4289    0.0000    0.0000 C   0  0  0  0  0  0  0  0  0  0  0  0
    0.7145   -0.4125    0.0000 N   0  0  0  0  0  0  0  0  0  0  0  0
    0.0000   -0.0000    0.0000 C   0  0  0  0  0  0  0  0  0  0  0  0
    0.0000    0.8250    0.0000 N   0  0  0  0  0  0  0  0  0  0  0  0
   -0.7145   -0.4125    0.0000 O   0  0  0  0  0  0  0  0  0  0  0  0
    2.1434    1.2375    0.0000 F   0  0  0  0  0  0  0  0  0  0  0  0
  1  2  2  0  0  0  0
  2  3  1  0  0  0  0
  3  4  2  0  0  0  0
  4  5  1  0  0  0  0
  5  6  1  0  0  0  0
  6  7  1  0  0  0  0
  2  7  1  0  0  0  0
  6  8  2  0  0  0  0
  3  9  1  0  0  0  0
M  END
>  <Name>
Fluorouracil (5-Fluoracil, 5-FU)

>  <CAS>
51-21-8

>  <Formula>
C4H3FN2O2

>  <MolWt>
130.08 

>  <Bioactivity>
A pyrimidine analog that is an antineoplastic antimetabolite. It interferes with DNA synthesis by blocking the THYMIDYLATE SYNTHETASE conversion of deoxyuridylic acid to thymidylic acid.


>  <Pathways>
DNA Damage/DNA Repair;Microbiology & Virology; Proteases/Proteasome

>  <Target>
HIV Integrase;DNA/RNA Synthesis inhibitor

>  <Receptor>
HIV Integrase;RNA synthesis

>  <Reference>
1. Longley DB, et al. Nat Rev Cancer, 2003, 3(5), 330-338.

$$$$
T0986
  Mrv1561503291623562D          

  9  9  0  0  0  0            999 V2000
    0.7145    2.0625    0.0000 O   0  0  0  0  0  0  0  0  0  0  0  0
    0.7145    1.2375    0.0000 C   0  0  0  0  0  0  0  0  0  0  0  0
    1.4289    0.8250    0.0000 N   0  0  0  0  0  0  0  0  0  0  0  0
    1.4289    0.0000    0.0000 C   0  0  0  0  0  0  0  0  0  0  0  0
    0.7145   -0.4125    0.0000 C   0  0  0  0  0  0  0  0  0  0  0  0
    0.7145   -1.2375    0.0000 F   0  0  0  0  0  0  0  0  0  0  0  0
    0.0000   -0.0000    0.0000 C   0  0  0  0  0  0  0  0  0  0  0  0
    0.0000    0.8250    0.0000 N   0  0  0  0  0  0  0  0  0  0  0  0
    2.1434   -0.4125    0.0000 N   0  0  0  0  0  0  0  0  0  0  0  0
  1  2  2  0  0  0  0
  2  3  1  0  0  0  0
  3  4  1  0  0  0  0
  4  5  2  0  0  0  0
  5  6  1  0  0  0  0
  5  7  1  0  0  0  0
  7  8  2  0  0  0  0
  2  8  1  0  0  0  0
  4  9  1  0  0  0  0
M  END
>  <Name>
Fluorocytosine

>  <CAS>
2022-85-7

>  <Formula>
C4H4FN3O

>  <MolWt>
129.09 

>  <Bioactivity>
Flucytosine is a Nucleoside Analog Antifungal. The chemical classification of flucytosine is Nucleoside Analog.


>  <Pathways>
DNA Damage/DNA Repair;Microbiology & Virology

>  <Target>
Antibiotic;DNA/RNA Synthesis inhibitor

>  <Receptor>
DNA synthesis

>  <Reference>
1. Osterman DG, et al. Biochemistry. 1988 Jul 12;27(14):5204-10.

$$$$
41340-25-4
  Mrv1561503291623562D          

 21 23  0  0  0  0            999 V2000
    2.8985    1.1971    0.0000 C   0  0  0  0  0  0  0  0  0  0  0  0
    3.7054    1.0256    0.0000 C   0  0  0  0  0  0  0  0  0  0  0  0
    3.9604    0.2410    0.0000 C   0  0  0  0  0  0  0  0  0  0  0  0
    3.4084   -0.3721    0.0000 C   0  0  0  0  0  0  0  0  0  0  0  0
    2.6014   -0.2006    0.0000 C   0  0  0  0  0  0  0  0  0  0  0  0
    2.3464    0.5840    0.0000 C   0  0  0  0  0  0  0  0  0  0  0  0
    1.5214    0.5840    0.0000 C   0  0  0  0  0  0  0  0  0  0  0  0
    1.2665   -0.2006    0.0000 C   0  0  0  0  0  0  0  0  0  0  0  0
    0.4595   -0.3721    0.0000 C   0  0  0  0  0  0  0  0  0  0  0  0
   -0.0925    0.2410    0.0000 O   0  0  0  0  0  0  0  0  0  0  0  0
    0.1624    1.0256    0.0000 C   0  0  0  0  0  0  0  0  0  0  0  0
    0.9694    1.1971    0.0000 C   0  0  0  0  0  0  0  0  0  0  0  0
    0.6028   -1.1846    0.0000 C   0  0  0  0  0  0  0  0  0  0  0  0
   -0.0292   -1.7149    0.0000 C   0  0  0  0  0  0  0  0  0  0  0  0
    0.1141   -2.5274    0.0000 O   0  0  0  0  0  0  0  0  0  0  0  0
   -0.8044   -1.4327    0.0000 O   0  0  0  0  0  0  0  0  0  0  0  0
   -0.1339   -0.9452    0.0000 C   0  0  0  0  0  0  0  0  0  0  0  0
   -0.9270   -0.7178    0.0000 C   0  0  0  0  0  0  0  0  0  0  0  0
    1.9339   -0.6855    0.0000 N   0  0  0  0  0  0  0  0  0  0  0  0
    3.6633   -1.1567    0.0000 C   0  0  0  0  0  0  0  0  0  0  0  0
    4.4703   -1.3283    0.0000 C   0  0  0  0  0  0  0  0  0  0  0  0
  1  2  2  0  0  0  0
  2  3  1  0  0  0  0
  3  4  2  0  0  0  0
  4  5  1  0  0  0  0
  5  6  2  0  0  0  0
  1  6  1  0  0  0  0
  6  7  1  0  0  0  0
  7  8  2  0  0  0  0
  8  9  1  0  0  0  0
  9 10  1  0  0  0  0
 10 11  1  0  0  0  0
 11 12  1  0  0  0  0
  7 12  1  0  0  0  0
  9 13  1  0  0  0  0
 13 14  1  0  0  0  0
 14 15  1  0  0  0  0
 14 16  2  0  0  0  0
  9 17  1  0  0  0  0
 17 18  1  0  0  0  0
  8 19  1  0  0  0  0
  5 19  1  0  0  0  0
  4 20  1  0  0  0  0
 20 21  1  0  0  0  0
M  END
>  <Name>
Etodolac

>  <CAS>
41340-25-4

>  <Formula>
C17H21NO3

>  <MolWt>
287.35 

>  <Bioactivity>
A nonsteroidal anti-inflammatory agent with potent analgesic and antiarthritic properties. It has been shown to be effective in the treatment of OSTEOARTHRITIS; RHEUMATOID ARTHRITIS; ankylosing SPONDYLITIS; and in the alleviation of postoperative pain (PAIN, POSTOPERATIVE).


>  <Pathways>
Neuroscience;Metabolism

>  <Target>
RXR/RAR;COX inhibitor

>  <Receptor>
RXR-alpha;Prostaglandin G/H synthase

>  <Reference>
1. Glaser K, et al. Eur J Pharmacol. 1995 Jul 25;281(1):107-11. 

$$$$
504-03-0
  Mrv1561503291623562D          

  8  8  0  0  1  0            999 V2000
    0.7145    1.2375    0.0000 C   0  0  1  0  0  0  0  0  0  0  0  0
    1.4289    0.8250    0.0000 N   0  3  0  0  0  0  0  0  0  0  0  0
    1.4289    0.0000    0.0000 C   0  0  2  0  0  0  0  0  0  0  0  0
    0.7145   -0.4125    0.0000 C   0  0  0  0  0  0  0  0  0  0  0  0
    0.0000   -0.0000    0.0000 C   0  0  0  0  0  0  0  0  0  0  0  0
    0.0000    0.8250    0.0000 C   0  0  0  0  0  0  0  0  0  0  0  0
    2.1434   -0.4125    0.0000 C   0  0  0  0  0  0  0  0  0  0  0  0
    0.7145    2.0625    0.0000 C   0  0  0  0  0  0  0  0  0  0  0  0
  1  2  1  0  0  0  0
  2  3  1  0  0  0  0
  3  4  1  0  0  0  0
  4  5  1  0  0  0  0
  5  6  1  0  0  0  0
  1  6  1  0  0  0  0
  3  7  1  1  0  0  0
  1  8  1  1  0  0  0
M  CHG  1   2   1
M  END
>  <Name>
Lupetidin

>  <CAS>
504-03-0

>  <Formula>
C7H15N

>  <MolWt>
113.20 

>  <Bioactivity>
2,6-Dimethylpiperidines are chemical compounds with the formula C5H8(CH3)2NH. Three stereoisomers exist: the achiral (R,S)-isomer and the chiral (R,R)/(S,S) enantiomeric pair. Dimethylpiperidines are derivatives of the heterocycle piperidine, wherein two hydrogen atoms are replaced by methyl groups. 

>  <Pathways>
Others

>  <Target>
Others

>  <Receptor>
Others

>  <Reference>
1. SYRNEVA IuI. Farmakol Toksikol. 1961 May-Jun;24:304-9.

$$$$
5370-01-4
  Mrv1561503291623562D          

 15 13  0  0  0  0            999 V2000
    0.4125    0.0000    0.0000 H   0  3  0  0  0  0  0  0  0  0  0  0
    7.0565    0.0317    0.0000 C   0  0  0  0  0  0  0  0  0  0  0  0
    7.0565   -0.7933    0.0000 C   0  0  0  0  0  0  0  0  0  0  0  0
    6.3420   -1.2058    0.0000 C   0  0  0  0  0  0  0  0  0  0  0  0
    5.6275   -0.7933    0.0000 C   0  0  0  0  0  0  0  0  0  0  0  0
    5.6275    0.0317    0.0000 C   0  0  0  0  0  0  0  0  0  0  0  0
    6.3420    0.4442    0.0000 C   0  0  0  0  0  0  0  0  0  0  0  0
    6.3420    1.2692    0.0000 C   0  0  0  0  0  0  0  0  0  0  0  0
    4.9131    0.4442    0.0000 O   0  0  0  0  0  0  0  0  0  0  0  0
    4.1986    0.0317    0.0000 C   0  0  0  0  0  0  0  0  0  0  0  0
    3.4841    0.4442    0.0000 C   0  0  0  0  0  0  0  0  0  0  0  0
    2.7696    0.0317    0.0000 N   0  0  0  0  0  0  0  0  0  0  0  0
    3.4841    1.2692    0.0000 C   0  0  0  0  0  0  0  0  0  0  0  0
    4.9131   -1.2058    0.0000 C   0  0  0  0  0  0  0  0  0  0  0  0
   -0.4125    0.0000    0.0000 Cl  0  5  0  0  0  0  0  0  0  0  0  0
  2  3  2  0  0  0  0
  3  4  1  0  0  0  0
  4  5  2  0  0  0  0
  5  6  1  0  0  0  0
  6  7  2  0  0  0  0
  2  7  1  0  0  0  0
  7  8  1  0  0  0  0
  6  9  1  0  0  0  0
  9 10  1  0  0  0  0
 10 11  1  0  0  0  0
 11 12  1  0  0  0  0
 11 13  1  0  0  0  0
  5 14  1  0  0  0  0
M  CHG  2   1   1  15  -1
M  END
>  <Name>
Mexiletine HCl

>  <CAS>
5370-01-4

>  <Formula>
C11H18ClNO

>  <MolWt>
215.72 

>  <Bioactivity>
Antiarrhythmic agent pharmacologically similar to LIDOCAINE. It may have some anticonvulsant properties.


>  <Pathways>
Membrane Transporter/Ion Channel; Metabolism

>  <Target>
AhR agonist;Sodium Channel inhibitor

>  <Receptor>
Aryl hydrocarbon receptor;Voltage-Gated Sodium Channel Blockers

>  <Reference>
1. Valdivia CR, et al. Cardiovasc Res. 2002 Aug 1;55(2):279-89. 

$$$$
T1055
  Mrv1561503291623562D          

 14 14  0  0  0  0            999 V2000
   -0.7145    1.2375    0.0000 C   0  0  0  0  0  0  0  0  0  0  0  0
    0.0000    0.8250    0.0000 N   0  0  0  0  0  0  0  0  0  0  0  0
    0.7145    1.2375    0.0000 P   0  0  0  0  0  0  0  0  0  0  0  0
    1.4289    0.8250    0.0000 O   0  0  0  0  0  0  0  0  0  0  0  0
    1.4289   -0.0000    0.0000 C   0  0  0  0  0  0  0  0  0  0  0  0
    0.7145   -0.4125    0.0000 C   0  0  0  0  0  0  0  0  0  0  0  0
   -0.0000    0.0000    0.0000 C   0  0  0  0  0  0  0  0  0  0  0  0
    0.3272    1.9659    0.0000 N   0  0  0  0  0  0  0  0  0  0  0  0
    0.7643    2.6656    0.0000 C   0  0  0  0  0  0  0  0  0  0  0  0
    0.3770    3.3940    0.0000 C   0  0  0  0  0  0  0  0  0  0  0  0
    0.8142    4.0936    0.0000 Cl  0  0  0  0  0  0  0  0  0  0  0  0
    1.1018    1.9659    0.0000 O   0  0  0  0  0  0  0  0  0  0  0  0
   -1.4289    0.8250    0.0000 C   0  0  0  0  0  0  0  0  0  0  0  0
   -1.4289    0.0000    0.0000 Cl  0  0  0  0  0  0  0  0  0  0  0  0
  1  2  1  0  0  0  0
  2  3  1  0  0  0  0
  3  4  1  0  0  0  0
  4  5  1  0  0  0  0
  5  6  1  0  0  0  0
  6  7  1  0  0  0  0
  2  7  1  0  0  0  0
  3  8  1  0  0  0  0
  8  9  1  0  0  0  0
  9 10  1  0  0  0  0
 10 11  1  0  0  0  0
  3 12  2  0  0  0  0
  1 13  1  0  0  0  0
 13 14  1  0  0  0  0
M  END
>  <Name>
Ifosfamide

>  <CAS>
3778-73-2

>  <Formula>
C7H15Cl2N2O2P

>  <MolWt>
261.09 

>  <Bioactivity>
Positional isomer of CYCLOPHOSPHAMIDE which is active as an alkylating agent and an immunosuppressive agent.


>  <Pathways>
DNA Damage/DNA Repair

>  <Target>
DNA/RNA Synthesis inhibitor

>  <Receptor>
DNA/RNA Synthesis

>  <Reference>
1. Hartley JM, et al. Clin Cancer Res. 1999 Mar;5(3):507-12.

$$$$
T1056
  Mrv1561503291623562D          

 17 15  0  0  0  0            999 V2000
    0.4125    0.0000    0.0000 H   0  3  0  0  0  0  0  0  0  0  0  0
    4.4416    0.5500    0.0000 C   0  0  0  0  0  0  0  0  0  0  0  0
    4.4416   -0.2750    0.0000 C   0  0  0  0  0  0  0  0  0  0  0  0
    5.1561   -0.6875    0.0000 C   0  0  0  0  0  0  0  0  0  0  0  0
    5.1561   -1.5125    0.0000 O   0  0  0  0  0  0  0  0  0  0  0  0
    5.8706   -0.2750    0.0000 C   0  0  0  0  0  0  0  0  0  0  0  0
    6.5850   -0.6875    0.0000 N   0  0  0  0  0  0  0  0  0  0  0  0
    7.2995   -0.2750    0.0000 C   0  0  0  0  0  0  0  0  0  0  0  0
    8.0140   -0.6875    0.0000 C   0  0  0  0  0  0  0  0  0  0  0  0
    7.2995    0.5500    0.0000 C   0  0  0  0  0  0  0  0  0  0  0  0
    3.7272   -0.6875    0.0000 C   0  0  0  0  0  0  0  0  0  0  0  0
    3.0127   -0.2750    0.0000 C   0  0  0  0  0  0  0  0  0  0  0  0
    3.0127    0.5500    0.0000 C   0  0  0  0  0  0  0  0  0  0  0  0
    3.7272    0.9625    0.0000 C   0  0  0  0  0  0  0  0  0  0  0  0
    3.7272    1.7875    0.0000 O   0  0  0  0  0  0  0  0  0  0  0  0
    2.2982    0.9625    0.0000 O   0  0  0  0  0  0  0  0  0  0  0  0
   -0.4125    0.0000    0.0000 Cl  0  5  0  0  0  0  0  0  0  0  0  0
  2  3  2  0  0  0  0
  3  4  1  0  0  0  0
  4  5  1  0  0  0  0
  4  6  1  0  0  0  0
  6  7  1  0  0  0  0
  7  8  1  0  0  0  0
  8  9  1  0  0  0  0
  8 10  1  0  0  0  0
  3 11  1  0  0  0  0
 11 12  2  0  0  0  0
 12 13  1  0  0  0  0
 13 14  2  0  0  0  0
  2 14  1  0  0  0  0
 14 15  1  0  0  0  0
 13 16  1  0  0  0  0
M  CHG  2   1   1  17  -1
M  END
>  <Name>
Isoprenaline HCl

>  <CAS>
51-30-9

>  <Formula>
C11H18ClNO3

>  <MolWt>
247.72 

>  <Bioactivity>
Isopropyl analog of EPINEPHRINE; beta-sympathomimetic that acts on the heart, bronchi, skeletal muscle, alimentary tract, etc. It is used mainly as bronchodilator and heart stimulant.


>  <Pathways>
GPCR/G Protein

>  <Target>
CAMP PDE activator;PI3K agonist;Adrenergic Receptor antagonist

>  <Receptor>
CAMP PDE;PI3K ;Adrenergic receptor

>  <Reference>
1. Degerman E, et al. Proc Natl Acad Sci U S A, 1990, 87(2), 533-537.

$$$$
T1060
  Mrv1561503291623562D          

 19 21  0  0  0  0            999 V2000
   -0.7145   -0.4125    0.0000 C   0  0  0  0  0  0  0  0  0  0  0  0
   -0.7145   -1.2375    0.0000 C   0  0  0  0  0  0  0  0  0  0  0  0
   -1.4289   -1.6500    0.0000 F   0  0  0  0  0  0  0  0  0  0  0  0
   -0.0000   -1.6500    0.0000 C   0  0  0  0  0  0  0  0  0  0  0  0
    0.7145   -1.2375    0.0000 C   0  0  0  0  0  0  0  0  0  0  0  0
    0.7145   -0.4125    0.0000 C   0  0  0  0  0  0  0  0  0  0  0  0
   -0.0000    0.0000    0.0000 C   0  0  0  0  0  0  0  0  0  0  0  0
   -0.0000    0.8250    0.0000 C   0  0  0  0  0  0  0  0  0  0  0  0
    0.7145    1.2375    0.0000 C   0  0  0  0  0  0  0  0  0  0  0  0
    1.4289    0.8250    0.0000 C   0  0  0  0  0  0  0  0  0  0  0  0
    1.4289    0.0000    0.0000 N   0  0  0  0  0  0  0  0  0  0  0  0
    2.1434   -0.4125    0.0000 C   0  0  0  0  0  0  0  0  0  0  0  0
    2.1434   -1.2375    0.0000 C   0  0  0  0  0  0  0  0  0  0  0  0
    1.4289   -1.6500    0.0000 C   0  0  0  0  0  0  0  0  0  0  0  0
    2.8579   -0.0000    0.0000 C   0  0  0  0  0  0  0  0  0  0  0  0
    0.7145    2.0625    0.0000 C   0  0  0  0  0  0  0  0  0  0  0  0
    1.4289    2.4750    0.0000 O   0  0  0  0  0  0  0  0  0  0  0  0
    0.0000    2.4750    0.0000 O   0  0  0  0  0  0  0  0  0  0  0  0
   -0.7145    1.2375    0.0000 O   0  0  0  0  0  0  0  0  0  0  0  0
  1  2  2  0  0  0  0
  2  3  1  0  0  0  0
  2  4  1  0  0  0  0
  4  5  2  0  0  0  0
  5  6  1  0  0  0  0
  6  7  2  0  0  0  0
  1  7  1  0  0  0  0
  7  8  1  0  0  0  0
  8  9  1  0  0  0  0
  9 10  2  0  0  0  0
 10 11  1  0  0  0  0
  6 11  1  0  0  0  0
 11 12  1  0  0  0  0
 12 13  1  0  0  0  0
 13 14  1  0  0  0  0
  5 14  1  0  0  0  0
 12 15  1  0  0  0  0
  9 16  1  0  0  0  0
 16 17  1  0  0  0  0
 16 18  2  0  0  0  0
  8 19  2  0  0  0  0
M  END
>  <Name>
Flumequine

>  <CAS>
42835-25-6

>  <Formula>
C14H12FNO3

>  <MolWt>
261.25 

>  <Bioactivity>
Flumequine is a synthetic chemotherapeutic antibiotic of the fluoroquinolone drug class used to treat bacterial infections.


>  <Pathways>
DNA Damage/DNA Repair

>  <Target>
Topoisomerase inhibitor

>  <Receptor>
Topoisomerase II

>  <Reference>
1. Kashida Y, et al. Toxicol Sci, 2002, 69(2), 317-321.

$$$$
33125-97-2
  Mrv1561503291623562D          

 18 19  0  0  0  0            999 V2000
    2.7041   -1.7840    0.0000 C   0  0  0  0  0  0  0  0  0  0  0  0
    2.4492   -2.5687    0.0000 N   0  0  0  0  0  0  0  0  0  0  0  0
    1.6242   -2.5687    0.0000 C   0  0  0  0  0  0  0  0  0  0  0  0
    1.3693   -1.7840    0.0000 C   0  0  0  0  0  0  0  0  0  0  0  0
    2.0367   -1.2991    0.0000 N   0  0  0  0  0  0  0  0  0  0  0  0
    2.0367   -0.4741    0.0000 C   0  0  0  0  0  0  0  0  0  0  0  0
    2.7512   -0.0616    0.0000 C   0  0  0  0  0  0  0  0  0  0  0  0
    2.7512    0.7634    0.0000 C   0  0  0  0  0  0  0  0  0  0  0  0
    3.4656    1.1759    0.0000 C   0  0  0  0  0  0  0  0  0  0  0  0
    4.1801    0.7634    0.0000 C   0  0  0  0  0  0  0  0  0  0  0  0
    4.1801   -0.0616    0.0000 C   0  0  0  0  0  0  0  0  0  0  0  0
    3.4656   -0.4741    0.0000 C   0  0  0  0  0  0  0  0  0  0  0  0
    1.3222   -0.0616    0.0000 C   0  0  0  0  0  0  0  0  0  0  0  0
    0.5846   -1.5291    0.0000 C   0  0  0  0  0  0  0  0  0  0  0  0
   -0.0284   -2.0811    0.0000 O   0  0  0  0  0  0  0  0  0  0  0  0
   -0.8131   -1.8262    0.0000 C   0  0  0  0  0  0  0  0  0  0  0  0
   -1.4262   -2.3782    0.0000 C   0  0  0  0  0  0  0  0  0  0  0  0
    0.4131   -0.7221    0.0000 O   0  0  0  0  0  0  0  0  0  0  0  0
  1  2  2  0  0  0  0
  2  3  1  0  0  0  0
  3  4  2  0  0  0  0
  4  5  1  0  0  0  0
  1  5  1  0  0  0  0
  5  6  1  0  0  0  0
  6  7  1  0  0  0  0
  7  8  2  0  0  0  0
  8  9  1  0  0  0  0
  9 10  2  0  0  0  0
 10 11  1  0  0  0  0
 11 12  2  0  0  0  0
  7 12  1  0  0  0  0
  6 13  1  0  0  0  0
  4 14  1  0  0  0  0
 14 15  1  0  0  0  0
 15 16  1  0  0  0  0
 16 17  1  0  0  0  0
 14 18  2  0  0  0  0
M  END
>  <Name>
Etomidate

>  <CAS>
33125-97-2

>  <Formula>
C14H16N2O2

>  <MolWt>
244.29 

>  <Bioactivity>
Etomidate is a GABAA receptor agonist, used as a short-acting anaesthetic agent or sedative.

>  <Pathways>
Neuroscience

>  <Target>
GABAR agonist

>  <Receptor>
GABAR

>  <Reference>
1. Paris A, et al. Anesthesiology,?003, 99(4), 889-895.

$$$$
139264-17-8
  Mrv1561503291623562D          

 21 23  0  0  1  0            999 V2000
    3.4990    1.1104    0.0000 C   0  0  1  0  0  0  0  0  0  0  0  0
    3.5852    1.9309    0.0000 N   0  0  0  0  0  0  0  0  0  0  0  0
    4.3922    2.1025    0.0000 C   0  0  0  0  0  0  0  0  0  0  0  0
    4.8047    1.3880    0.0000 O   0  0  0  0  0  0  0  0  0  0  0  0
    4.2527    0.7749    0.0000 C   0  0  0  0  0  0  0  0  0  0  0  0
    4.7278    2.8561    0.0000 O   0  0  0  0  0  0  0  0  0  0  0  0
    2.7845    0.6979    0.0000 C   0  0  0  0  0  0  0  0  0  0  0  0
    2.0701    1.1104    0.0000 C   0  0  0  0  0  0  0  0  0  0  0  0
    1.3556    0.6979    0.0000 C   0  0  0  0  0  0  0  0  0  0  0  0
    0.6411    1.1104    0.0000 C   0  0  0  0  0  0  0  0  0  0  0  0
    0.6411    1.9354    0.0000 C   0  0  0  0  0  0  0  0  0  0  0  0
   -0.1435    2.1904    0.0000 N   0  0  0  0  0  0  0  0  0  0  0  0
   -0.6284    1.5229    0.0000 C   0  0  0  0  0  0  0  0  0  0  0  0
   -0.1435    0.8555    0.0000 C   0  0  0  0  0  0  0  0  0  0  0  0
   -0.3984    0.0709    0.0000 C   0  0  0  0  0  0  0  0  0  0  0  0
    0.1536   -0.5422    0.0000 C   0  0  0  0  0  0  0  0  0  0  0  0
   -0.1014   -1.3268    0.0000 N   0  0  0  0  0  0  0  0  0  0  0  0
    0.4507   -1.9399    0.0000 C   0  0  0  0  0  0  0  0  0  0  0  0
   -0.9083   -1.4984    0.0000 C   0  0  0  0  0  0  0  0  0  0  0  0
    1.3556    2.3479    0.0000 C   0  0  0  0  0  0  0  0  0  0  0  0
    2.0701    1.9354    0.0000 C   0  0  0  0  0  0  0  0  0  0  0  0
  1  2  1  0  0  0  0
  2  3  1  0  0  0  0
  3  4  1  0  0  0  0
  4  5  1  0  0  0  0
  1  5  1  0  0  0  0
  3  6  2  0  0  0  0
  1  7  1  1  0  0  0
  7  8  1  0  0  0  0
  8  9  2  0  0  0  0
  9 10  1  0  0  0  0
 10 11  2  0  0  0  0
 11 12  1  0  0  0  0
 12 13  1  0  0  0  0
 13 14  2  0  0  0  0
 10 14  1  0  0  0  0
 14 15  1  0  0  0  0
 15 16  1  0  0  0  0
 16 17  1  0  0  0  0
 17 18  1  0  0  0  0
 17 19  1  0  0  0  0
 11 20  1  0  0  0  0
 20 21  2  0  0  0  0
  8 21  1  0  0  0  0
M  END
>  <Name>
Zolmitriptan

>  <CAS>
139264-17-8

>  <Formula>
C16H21N3O2

>  <MolWt>
287.36 

>  <Bioactivity>
Zolmitriptan is a selective serotonin receptor agonist.

>  <Pathways>
Neuroscience

>  <Target>
5-HT Receptor agonist

>  <Receptor>
5-HT Receptor

>  <Reference>
1. Le Grand B, et al. Eur J Pharmacol. 2000 Jun 2;397(2-3):297-302.

$$$$
125-84-8
  Mrv1561503291623562D          

 17 18  0  0  0  0            999 V2000
    2.4895   -1.2640    0.0000 C   0  0  0  0  0  0  0  0  0  0  0  0
    2.4895   -2.0890    0.0000 C   0  0  0  0  0  0  0  0  0  0  0  0
    1.7751   -2.5015    0.0000 C   0  0  0  0  0  0  0  0  0  0  0  0
    1.0606   -2.0890    0.0000 C   0  0  0  0  0  0  0  0  0  0  0  0
    1.0606   -1.2640    0.0000 C   0  0  0  0  0  0  0  0  0  0  0  0
    1.7751   -0.8515    0.0000 C   0  0  0  0  0  0  0  0  0  0  0  0
    1.7751   -0.0265    0.0000 C   0  0  0  0  0  0  0  0  0  0  0  0
    1.4929    0.7488    0.0000 C   0  0  0  0  0  0  0  0  0  0  0  0
    2.0232    1.3808    0.0000 N   0  0  0  0  0  0  0  0  0  0  0  0
    2.8357    1.2375    0.0000 C   0  0  0  0  0  0  0  0  0  0  0  0
    3.3660    1.8695    0.0000 O   0  0  0  0  0  0  0  0  0  0  0  0
    3.1178    0.4623    0.0000 C   0  0  0  0  0  0  0  0  0  0  0  0
    2.5875   -0.1697    0.0000 C   0  0  0  0  0  0  0  0  0  0  0  0
    0.6804    0.8920    0.0000 O   0  0  0  0  0  0  0  0  0  0  0  0
    0.9626   -0.1697    0.0000 C   0  0  0  0  0  0  0  0  0  0  0  0
    0.6804   -0.9450    0.0000 C   0  0  0  0  0  0  0  0  0  0  0  0
    1.7751   -3.3265    0.0000 N   0  0  0  0  0  0  0  0  0  0  0  0
  1  2  2  0  0  0  0
  2  3  1  0  0  0  0
  3  4  2  0  0  0  0
  4  5  1  0  0  0  0
  5  6  2  0  0  0  0
  1  6  1  0  0  0  0
  6  7  1  0  0  0  0
  7  8  1  0  0  0  0
  8  9  1  0  0  0  0
  9 10  1  0  0  0  0
 10 11  2  0  0  0  0
 10 12  1  0  0  0  0
 12 13  1  0  0  0  0
  7 13  1  0  0  0  0
  8 14  2  0  0  0  0
  7 15  1  0  0  0  0
 15 16  1  0  0  0  0
  3 17  1  0  0  0  0
M  END
>  <Name>
Aminoglutethimide

>  <CAS>
125-84-8

>  <Formula>
C13H16N2O2

>  <MolWt>
232.28 

>  <Bioactivity>
Aminoglutethimide is an aromatase inhibitor that is used in the treatment of advanced BREAST CANCER.


>  <Pathways>
Endocrinology/ Hormones

>  <Target>
Aromatase Inhibitor

>  <Receptor>
Aromatase

>  <Reference>
1. Neves MA, et al. Eur J Med Chem, 2009, 44(10), 4121-4127.

$$$$
T1113
  Mrv1561503291623562D          

 19 20  0  0  0  0            999 V2000
   -0.7145   -2.8875    0.0000 C   0  0  0  0  0  0  0  0  0  0  0  0
   -0.0000   -2.4750    0.0000 C   0  0  0  0  0  0  0  0  0  0  0  0
   -0.0000   -1.6500    0.0000 C   0  0  0  0  0  0  0  0  0  0  0  0
   -0.7145   -1.2375    0.0000 C   0  0  0  0  0  0  0  0  0  0  0  0
   -0.7145   -0.4125    0.0000 N   0  0  0  0  0  0  0  0  0  0  0  0
   -1.3819    0.0724    0.0000 C   0  0  0  0  0  0  0  0  0  0  0  0
   -1.1270    0.8570    0.0000 C   0  0  0  0  0  0  0  0  0  0  0  0
   -0.3020    0.8570    0.0000 N   0  0  0  0  0  0  0  0  0  0  0  0
   -0.0470    0.0724    0.0000 C   0  0  0  0  0  0  0  0  0  0  0  0
    0.7145   -1.2375    0.0000 O   0  0  0  0  0  0  0  0  0  0  0  0
    1.4289   -1.6500    0.0000 C   0  0  0  0  0  0  0  0  0  0  0  0
    2.1434   -1.2375    0.0000 C   0  0  0  0  0  0  0  0  0  0  0  0
    2.8579   -1.6500    0.0000 C   0  0  0  0  0  0  0  0  0  0  0  0
    0.7145   -2.8875    0.0000 C   0  0  0  0  0  0  0  0  0  0  0  0
    0.7145   -3.7125    0.0000 C   0  0  0  0  0  0  0  0  0  0  0  0
   -0.0000   -4.1250    0.0000 C   0  0  0  0  0  0  0  0  0  0  0  0
   -0.7145   -3.7125    0.0000 C   0  0  0  0  0  0  0  0  0  0  0  0
   -0.0000   -4.9500    0.0000 Cl  0  0  0  0  0  0  0  0  0  0  0  0
    1.4289   -2.4750    0.0000 Cl  0  0  0  0  0  0  0  0  0  0  0  0
  1  2  2  0  0  0  0
  2  3  1  0  0  0  0
  3  4  1  0  0  0  0
  4  5  1  0  0  0  0
  5  6  1  0  0  0  0
  6  7  2  0  0  0  0
  7  8  1  0  0  0  0
  8  9  2  0  0  0  0
  5  9  1  0  0  0  0
  3 10  1  0  0  0  0
 10 11  1  0  0  0  0
 11 12  1  0  0  0  0
 12 13  2  0  0  0  0
  2 14  1  0  0  0  0
 14 15  2  0  0  0  0
 15 16  1  0  0  0  0
 16 17  2  0  0  0  0
  1 17  1  0  0  0  0
 16 18  1  0  0  0  0
 14 19  1  0  0  0  0
M  END
>  <Name>
Imazalil

>  <CAS>
35554-44-0

>  <Formula>
C14H14Cl2N2O

>  <MolWt>
297.19 

>  <Bioactivity>
Enilconazole (synonyms imazalil, chloramizole) is a fungicide widely used in agriculture, particularly in the growing of citrus fruits. Enilconazole is also used in veterinary medicine as a topical antimycotic.

>  <Pathways>
Microbiology & Virology

>  <Target>
Antifungal

>  <Receptor>
Others

>  <Reference>
1. Ruiz-Rodríguez L, et al. Food Chem. 2015 Jul 1;178:179-85.

$$$$
41621-49-2
  Mrv1561503291623562D          

 19 19  0  0  0  0            999 V2000
    0.7621    2.2000    0.0000 C   0  0  0  0  0  0  0  0  0  0  0  0
    0.7621    1.3750    0.0000 C   0  0  0  0  0  0  0  0  0  0  0  0
    1.4766    0.9625    0.0000 C   0  0  0  0  0  0  0  0  0  0  0  0
    1.4766    0.1375    0.0000 C   0  0  0  0  0  0  0  0  0  0  0  0
    0.7621   -0.2750    0.0000 N   0  0  0  0  0  0  0  0  0  0  0  0
    0.0476    0.1375    0.0000 C   0  0  0  0  0  0  0  0  0  0  0  0
    0.0476    0.9625    0.0000 C   0  0  0  0  0  0  0  0  0  0  0  0
   -0.6668   -0.2750    0.0000 C   0  0  0  0  0  0  0  0  0  0  0  0
   -0.6668   -1.1000    0.0000 C   0  0  0  0  0  0  0  0  0  0  0  0
   -1.3813   -1.5125    0.0000 C   0  0  0  0  0  0  0  0  0  0  0  0
   -2.0958   -1.1000    0.0000 C   0  0  0  0  0  0  0  0  0  0  0  0
   -2.0958   -0.2750    0.0000 C   0  0  0  0  0  0  0  0  0  0  0  0
   -1.3813    0.1375    0.0000 C   0  0  0  0  0  0  0  0  0  0  0  0
    0.7621   -1.1000    0.0000 O   0  0  0  0  0  0  0  0  0  0  0  0
    2.1910   -0.2750    0.0000 O   0  0  0  0  0  0  0  0  0  0  0  0
    5.3732    0.3572    0.0000 C   0  0  0  0  0  0  0  0  0  0  0  0
    5.7857   -0.3572    0.0000 C   0  0  0  0  0  0  0  0  0  0  0  0
    6.6107   -0.3572    0.0000 O   0  0  0  0  0  0  0  0  0  0  0  0
    4.5482    0.3572    0.0000 N   0  0  0  0  0  0  0  0  0  0  0  0
  1  2  1  0  0  0  0
  2  3  2  0  0  0  0
  3  4  1  0  0  0  0
  4  5  1  0  0  0  0
  5  6  1  0  0  0  0
  6  7  2  0  0  0  0
  2  7  1  0  0  0  0
  6  8  1  0  0  0  0
  8  9  1  0  0  0  0
  9 10  1  0  0  0  0
 10 11  1  0  0  0  0
 11 12  1  0  0  0  0
 12 13  1  0  0  0  0
  8 13  1  0  0  0  0
  5 14  1  0  0  0  0
  4 15  2  0  0  0  0
 16 17  1  0  0  0  0
 17 18  1  0  0  0  0
 16 19  1  0  0  0  0
M  END
>  <Name>
Ciclopirox ethanolamine

>  <CAS>
41621-49-2

>  <Formula>
C14H24N2O3

>  <MolWt>
268.35 

>  <Bioactivity>
Ciclopirox ethanolamine (Ciclopirox olamine, HOE 296) is a broad-spectrum antifungal agent working as an iron chelator.

>  <Pathways>
Membrane Transporter/Ion Channel

>  <Target>
ATPase inhibitor

>  <Receptor>
ATPase;iron

>  <Reference>
1. Niewerth M, et al. Antimicrob Agents Chemother, 2003, 47(6), 1805-1817.

$$$$
T1233
  Mrv1561503291623562D          

 19 21  0  0  0  0            999 V2000
    2.1434   -0.4125    0.0000 C   0  0  0  0  0  0  0  0  0  0  0  0
    2.8579    0.0000    0.0000 C   0  0  0  0  0  0  0  0  0  0  0  0
    3.6425   -0.2549    0.0000 O   0  0  0  0  0  0  0  0  0  0  0  0
    4.1274    0.4125    0.0000 C   0  0  0  0  0  0  0  0  0  0  0  0
    3.6425    1.0799    0.0000 O   0  0  0  0  0  0  0  0  0  0  0  0
    2.8579    0.8250    0.0000 C   0  0  0  0  0  0  0  0  0  0  0  0
    2.1434    1.2375    0.0000 C   0  0  0  0  0  0  0  0  0  0  0  0
    1.4289    0.8250    0.0000 C   0  0  0  0  0  0  0  0  0  0  0  0
    1.4289    0.0000    0.0000 C   0  0  0  0  0  0  0  0  0  0  0  0
    0.7145   -0.4125    0.0000 N   0  0  0  0  0  0  0  0  0  0  0  0
   -0.0000    0.0000    0.0000 C   0  0  0  0  0  0  0  0  0  0  0  0
   -0.0000    0.8250    0.0000 C   0  0  0  0  0  0  0  0  0  0  0  0
    0.7145    1.2375    0.0000 C   0  0  0  0  0  0  0  0  0  0  0  0
    0.7145    2.0625    0.0000 O   0  0  0  0  0  0  0  0  0  0  0  0
   -0.7145    1.2375    0.0000 C   0  0  0  0  0  0  0  0  0  0  0  0
   -1.4289    0.8250    0.0000 O   0  0  0  0  0  0  0  0  0  0  0  0
   -0.7145    2.0625    0.0000 O   0  0  0  0  0  0  0  0  0  0  0  0
    0.7145   -1.2375    0.0000 C   0  0  0  0  0  0  0  0  0  0  0  0
   -0.0000   -1.6500    0.0000 C   0  0  0  0  0  0  0  0  0  0  0  0
  1  2  2  0  0  0  0
  2  3  1  0  0  0  0
  3  4  1  0  0  0  0
  4  5  1  0  0  0  0
  5  6  1  0  0  0  0
  2  6  1  0  0  0  0
  6  7  2  0  0  0  0
  7  8  1  0  0  0  0
  8  9  2  0  0  0  0
  1  9  1  0  0  0  0
  9 10  1  0  0  0  0
 10 11  1  0  0  0  0
 11 12  2  0  0  0  0
 12 13  1  0  0  0  0
  8 13  1  0  0  0  0
 13 14  2  0  0  0  0
 12 15  1  0  0  0  0
 15 16  1  0  0  0  0
 15 17  2  0  0  0  0
 10 18  1  0  0  0  0
 18 19  1  0  0  0  0
M  END
>  <Name>
Oxolinic acid

>  <CAS>
14698-29-4

>  <Formula>
C13H11NO5

>  <MolWt>
261.24 

>  <Bioactivity>
Synthetic antimicrobial related to NALIDIXIC ACID and used in URINARY TRACT INFECTIONS.


>  <Pathways>
DNA Damage/DNA Repair

>  <Target>
Topoisomerase inhibitor; DNA gyrase inhibitor

>  <Receptor>
Topoisomerase II ;DNA gyrase

>  <Reference>
1. Jariyawat S, et al. J Pharmacol Exp Ther. 1999 Aug;290(2):672-7. 

$$$$
22204-53-1
  Mrv1561503291623562D          

 17 18  0  0  0  0            999 V2000
    0.0000   -1.6500    0.0000 C   0  0  0  0  0  0  0  0  0  0  0  0
    0.7145   -1.2375    0.0000 C   0  0  0  0  0  0  0  0  0  0  0  0
    0.7145   -0.4125    0.0000 C   0  0  0  0  0  0  0  0  0  0  0  0
   -0.0000    0.0000    0.0000 C   0  0  0  0  0  0  0  0  0  0  0  0
   -0.7145   -0.4125    0.0000 C   0  0  0  0  0  0  0  0  0  0  0  0
   -0.7145   -1.2375    0.0000 C   0  0  0  0  0  0  0  0  0  0  0  0
   -1.4289   -1.6500    0.0000 C   0  0  0  0  0  0  0  0  0  0  0  0
   -2.1434   -1.2375    0.0000 C   0  0  0  0  0  0  0  0  0  0  0  0
   -2.8579   -1.6500    0.0000 O   0  0  0  0  0  0  0  0  0  0  0  0
   -2.1434   -0.4125    0.0000 O   0  0  0  0  0  0  0  0  0  0  0  0
   -1.4289   -2.4750    0.0000 C   0  0  0  0  0  0  0  0  0  0  0  0
    1.4289    0.0000    0.0000 C   0  0  0  0  0  0  0  0  0  0  0  0
    2.1434   -0.4125    0.0000 C   0  0  0  0  0  0  0  0  0  0  0  0
    2.8579    0.0000    0.0000 O   0  0  0  0  0  0  0  0  0  0  0  0
    2.8579    0.8250    0.0000 C   0  0  0  0  0  0  0  0  0  0  0  0
    2.1434   -1.2375    0.0000 C   0  0  0  0  0  0  0  0  0  0  0  0
    1.4289   -1.6500    0.0000 C   0  0  0  0  0  0  0  0  0  0  0  0
  1  2  2  0  0  0  0
  2  3  1  0  0  0  0
  3  4  2  0  0  0  0
  4  5  1  0  0  0  0
  5  6  2  0  0  0  0
  1  6  1  0  0  0  0
  6  7  1  0  0  0  0
  7  8  1  0  0  0  0
  8  9  1  0  0  0  0
  8 10  2  0  0  0  0
  7 11  1  0  0  0  0
  3 12  1  0  0  0  0
 12 13  2  0  0  0  0
 13 14  1  0  0  0  0
 14 15  1  0  0  0  0
 13 16  1  0  0  0  0
 16 17  2  0  0  0  0
  2 17  1  0  0  0  0
M  END
>  <Name>
Naproxen

>  <CAS>
22204-53-1

>  <Formula>
C14H14O3

>  <MolWt>
230.27 

>  <Bioactivity>
An anti-inflammatory agent with analgesic and antipyretic properties. Both the acid and its sodium salt are used in the treatment of rheumatoid arthritis and other rheumatic or musculoskeletal disorders, dysmenorrhea, and acute gout.


>  <Pathways>
Neuroscience

>  <Target>
COX inhibitor

>  <Receptor>
Prostaglandin G/H synthase

>  <Reference>
1. Albertini R, et al. Inflamm Res. 2007 Jun;56(6):228-9. 

$$$$
T1592
  Mrv1561503291623562D          

  5  4  0  0  0  0            999 V2000
    1.2375   -0.7145    0.0000 C   0  0  0  0  0  0  0  0  0  0  0  0
    0.8250    0.0000    0.0000 C   0  0  0  0  0  0  0  0  0  0  0  0
    1.2375    0.7145    0.0000 N   0  0  0  0  0  0  0  0  0  0  0  0
    0.8250    1.4289    0.0000 O   0  0  0  0  0  0  0  0  0  0  0  0
    0.0000    0.0000    0.0000 O   0  0  0  0  0  0  0  0  0  0  0  0
  1  2  1  0  0  0  0
  2  3  1  0  0  0  0
  3  4  1  0  0  0  0
  2  5  2  0  0  0  0
M  END
>  <Name>
Acetohydroxamic acid

>  <CAS>
546-88-3

>  <Formula>
C2H5NO2

>  <MolWt>
75.07 

>  <Bioactivity>
Acetohydroxamic Acid, a synthetic drug derived from hydroxylamine and ethyl acetate, is similar in structure to urea. In the urine, it acts as an antagonist of the bacterial enzyme urease. Acetohydroxamic Acid has no direct antimicrobial action and does not acidify urine directly. It is used, in addition to antibiotics or medical procedures, to treat chronic urea-splitting urinary infections.


>  <Pathways>
Proteases/Proteasome

>  <Target>
MMP inhibitor

>  <Receptor>
MMP

>  <Reference>
1. Palinska KA, et al. Microbiology. 2000 Dec;146 Pt 12:3099-107.

$$$$
1665-48-1
  Mrv1561503291623562D          

 16 17  0  0  0  0            999 V2000
    3.4656    1.1759    0.0000 C   0  0  0  0  0  0  0  0  0  0  0  0
    3.4656    2.0009    0.0000 C   0  0  0  0  0  0  0  0  0  0  0  0
    4.1801    2.4134    0.0000 C   0  0  0  0  0  0  0  0  0  0  0  0
    4.8946    2.0009    0.0000 C   0  0  0  0  0  0  0  0  0  0  0  0
    4.8946    1.1759    0.0000 C   0  0  0  0  0  0  0  0  0  0  0  0
    4.1801    0.7634    0.0000 C   0  0  0  0  0  0  0  0  0  0  0  0
    4.1801   -0.0616    0.0000 O   0  0  0  0  0  0  0  0  0  0  0  0
    3.4656   -0.4741    0.0000 C   0  0  0  0  0  0  0  0  0  0  0  0
    3.4656   -1.2991    0.0000 C   0  0  0  0  0  0  0  0  0  0  0  0
    4.1331   -1.7840    0.0000 C   0  0  0  0  0  0  0  0  0  0  0  0
    3.8781   -2.5687    0.0000 N   0  0  0  0  0  0  0  0  0  0  0  0
    3.0531   -2.5687    0.0000 C   0  0  0  0  0  0  0  0  0  0  0  0
    2.7982   -1.7840    0.0000 O   0  0  0  0  0  0  0  0  0  0  0  0
    2.5682   -3.2361    0.0000 O   0  0  0  0  0  0  0  0  0  0  0  0
    5.6091    2.4134    0.0000 C   0  0  0  0  0  0  0  0  0  0  0  0
    2.7512    2.4134    0.0000 C   0  0  0  0  0  0  0  0  0  0  0  0
  1  2  2  0  0  0  0
  2  3  1  0  0  0  0
  3  4  2  0  0  0  0
  4  5  1  0  0  0  0
  5  6  2  0  0  0  0
  1  6  1  0  0  0  0
  6  7  1  0  0  0  0
  7  8  1  0  0  0  0
  8  9  1  0  0  0  0
  9 10  1  0  0  0  0
 10 11  1  0  0  0  0
 11 12  1  0  0  0  0
 12 13  1  0  0  0  0
  9 13  1  0  0  0  0
 12 14  2  0  0  0  0
  4 15  1  0  0  0  0
  2 16  1  0  0  0  0
M  END
>  <Name>
Metaxalone

>  <CAS>
1665-48-1

>  <Formula>
C12H15NO3

>  <MolWt>
221.25 

>  <Bioactivity>
Metaxalone (marketed by King Pharmaceuticals under the brand name Skelaxin®) is a muscle relaxant used to relax muscles and relieve pain caused by strains, sprains, and other musculoskeletal conditions. Its exact mechanism of action is not known, but it may be due to general central nervous system depression. It is considered to be a moderately strong muscle relaxant, with relatively low incidence of side effects. Skelaxin comes in an 800 mg scored tablet. It previously came in both 400 mg and 800 mg tablets. The 400 mg tablet has been discontinued. Possible side effects include nausea, vomiting, drowsiness and CNS side effects such as dizziness, headache, and irritability.


>  <Pathways>
Others

>  <Target>
Others

>  <Receptor>
Others

>  <Reference>
1. Nirogi RV, et al. J Anal Toxicol. 2006 May;30(4):245-51.

$$$$
T2211
  Mrv1561503291623562D          

 95 96  0  0  1  0            999 V2000
   -0.7199    1.1487    0.0000 C   0  0  1  0  0  0  0  0  0  0  0  0
   -1.2719    1.7618    0.0000 O   0  0  0  0  0  0  0  0  0  0  0  0
   -0.0524    0.6637    0.0000 C   0  0  1  0  0  0  0  0  0  0  0  0
    0.7322    0.9187    0.0000 O   0  0  0  0  0  0  0  0  0  0  0  0
    0.9037    1.7257    0.0000 C   0  0  2  0  0  0  0  0  0  0  0  0
    0.2906    2.2777    0.0000 O   0  0  0  0  0  0  0  0  0  0  0  0
    0.4622    3.0847    0.0000 C   0  0  2  0  0  0  0  0  0  0  0  0
    1.2468    3.3396    0.0000 C   0  0  2  0  0  0  0  0  0  0  0  0
    1.4183    4.1466    0.0000 O   0  0  0  0  0  0  0  0  0  0  0  0
    1.8599    2.7876    0.0000 C   0  0  1  0  0  0  0  0  0  0  0  0
    2.6445    3.0425    0.0000 O   0  0  0  0  0  0  0  0  0  0  0  0
    1.6884    1.9806    0.0000 C   0  0  2  0  0  0  0  0  0  0  0  0
    2.3015    1.4286    0.0000 N   0  0  0  0  0  0  0  0  0  0  0  0
    2.1299    0.6216    0.0000 C   0  0  0  0  0  0  0  0  0  0  0  0
   -0.1509    3.6367    0.0000 C   0  0  0  0  0  0  0  0  0  0  0  0
    0.0206    4.4437    0.0000 O   0  0  0  0  0  0  0  0  0  0  0  0
   -0.3074   -0.1209    0.0000 C   0  0  2  0  0  0  0  0  0  0  0  0
    0.1776   -0.7883    0.0000 O   0  0  0  0  0  0  0  0  0  0  0  0
   -0.1580   -1.5420    0.0000 C   0  0  2  0  0  0  0  0  0  0  0  0
    0.3269   -2.2094    0.0000 C   0  0  1  0  0  0  0  0  0  0  0  0
    1.1474   -2.1232    0.0000 N   0  0  0  0  0  0  0  0  0  0  0  0
    1.4830   -1.3695    0.0000 C   0  0  0  0  0  0  0  0  0  0  0  0
    2.3035   -1.2833    0.0000 N   0  0  0  0  0  0  0  0  0  0  0  0
    0.9980   -0.7021    0.0000 N   0  0  0  0  0  0  0  0  0  0  0  0
   -0.0086   -2.9631    0.0000 C   0  0  2  0  0  0  0  0  0  0  0  0
    0.4763   -3.6305    0.0000 O   0  0  0  0  0  0  0  0  0  0  0  0
   -0.8291   -3.0493    0.0000 C   0  0  1  0  0  0  0  0  0  0  0  0
   -1.1647   -3.8030    0.0000 N   0  0  0  0  0  0  0  0  0  0  0  0
   -1.9851   -3.8893    0.0000 C   0  0  0  0  0  0  0  0  0  0  0  0
   -2.3207   -4.6429    0.0000 N   0  0  0  0  0  0  0  0  0  0  0  0
   -2.4701   -3.2218    0.0000 N   0  0  0  0  0  0  0  0  0  0  0  0
   -1.3140   -2.3819    0.0000 C   0  0  2  0  0  0  0  0  0  0  0  0
   -2.1345   -2.4681    0.0000 O   0  0  0  0  0  0  0  0  0  0  0  0
   -0.9785   -1.6282    0.0000 C   0  0  1  0  0  0  0  0  0  0  0  0
   -1.4634   -0.9608    0.0000 O   0  0  0  0  0  0  0  0  0  0  0  0
   -1.1324   -0.1209    0.0000 O   0  0  0  0  0  0  0  0  0  0  0  0
   -1.3873    0.6637    0.0000 C   0  0  1  0  0  0  0  0  0  0  0  0
   -2.1719    0.9187    0.0000 C   0  0  0  0  0  0  0  0  0  0  0  0
   -0.1678    1.7618    0.0000 C   0  0  0  0  0  0  0  0  0  0  0  0
   -0.4228    2.5464    0.0000 O   0  0  0  0  0  0  0  0  0  0  0  0
    6.7519    1.1487    0.0000 C   0  0  1  0  0  0  0  0  0  0  0  0
    6.1998    1.7618    0.0000 O   0  0  0  0  0  0  0  0  0  0  0  0
    7.4193    0.6637    0.0000 C   0  0  1  0  0  0  0  0  0  0  0  0
    8.2039    0.9187    0.0000 O   0  0  0  0  0  0  0  0  0  0  0  0
    8.3754    1.7257    0.0000 C   0  0  2  0  0  0  0  0  0  0  0  0
    7.7624    2.2777    0.0000 O   0  0  0  0  0  0  0  0  0  0  0  0
    7.9339    3.0847    0.0000 C   0  0  2  0  0  0  0  0  0  0  0  0
    8.7185    3.3396    0.0000 C   0  0  2  0  0  0  0  0  0  0  0  0
    8.8900    4.1466    0.0000 O   0  0  0  0  0  0  0  0  0  0  0  0
    9.3316    2.7876    0.0000 C   0  0  1  0  0  0  0  0  0  0  0  0
   10.1162    3.0425    0.0000 O   0  0  0  0  0  0  0  0  0  0  0  0
    9.1601    1.9806    0.0000 C   0  0  2  0  0  0  0  0  0  0  0  0
    9.7732    1.4286    0.0000 N   0  0  0  0  0  0  0  0  0  0  0  0
    9.6016    0.6216    0.0000 C   0  0  0  0  0  0  0  0  0  0  0  0
    7.3208    3.6367    0.0000 C   0  0  0  0  0  0  0  0  0  0  0  0
    7.4923    4.4437    0.0000 O   0  0  0  0  0  0  0  0  0  0  0  0
    7.1644   -0.1209    0.0000 C   0  0  2  0  0  0  0  0  0  0  0  0
    7.6493   -0.7883    0.0000 O   0  0  0  0  0  0  0  0  0  0  0  0
    7.3137   -1.5420    0.0000 C   0  0  2  0  0  0  0  0  0  0  0  0
    7.7986   -2.2094    0.0000 C   0  0  1  0  0  0  0  0  0  0  0  0
    8.6191   -2.1232    0.0000 N   0  0  0  0  0  0  0  0  0  0  0  0
    8.9547   -1.3695    0.0000 C   0  0  0  0  0  0  0  0  0  0  0  0
    9.7752   -1.2833    0.0000 N   0  0  0  0  0  0  0  0  0  0  0  0
    8.4698   -0.7021    0.0000 N   0  0  0  0  0  0  0  0  0  0  0  0
    7.4631   -2.9631    0.0000 C   0  0  2  0  0  0  0  0  0  0  0  0
    7.9480   -3.6305    0.0000 O   0  0  0  0  0  0  0  0  0  0  0  0
    6.6426   -3.0493    0.0000 C   0  0  1  0  0  0  0  0  0  0  0  0
    6.3071   -3.8030    0.0000 N   0  0  0  0  0  0  0  0  0  0  0  0
    5.4866   -3.8893    0.0000 C   0  0  0  0  0  0  0  0  0  0  0  0
    5.1510   -4.6429    0.0000 N   0  0  0  0  0  0  0  0  0  0  0  0
    5.0016   -3.2218    0.0000 N   0  0  0  0  0  0  0  0  0  0  0  0
    6.1577   -2.3819    0.0000 C   0  0  2  0  0  0  0  0  0  0  0  0
    5.3372   -2.4681    0.0000 O   0  0  0  0  0  0  0  0  0  0  0  0
    6.4932   -1.6282    0.0000 C   0  0  1  0  0  0  0  0  0  0  0  0
    6.0083   -0.9608    0.0000 O   0  0  0  0  0  0  0  0  0  0  0  0
    6.3394   -0.1209    0.0000 O   0  0  0  0  0  0  0  0  0  0  0  0
    6.0844    0.6637    0.0000 C   0  0  1  0  0  0  0  0  0  0  0  0
    5.2998    0.9187    0.0000 C   0  0  0  0  0  0  0  0  0  0  0  0
    7.3039    1.7618    0.0000 C   0  0  0  0  0  0  0  0  0  0  0  0
    7.0490    2.5464    0.0000 O   0  0  0  0  0  0  0  0  0  0  0  0
   12.7091   -0.8250    0.0000 O   0  0  0  0  0  0  0  0  0  0  0  0
   12.7091    0.0000    0.0000 S   0  0  0  0  0  0  0  0  0  0  0  0
   12.7091    0.8250    0.0000 O   0  0  0  0  0  0  0  0  0  0  0  0
   13.5341   -0.0000    0.0000 O   0  0  0  0  0  0  0  0  0  0  0  0
   11.8841    0.0000    0.0000 O   0  0  0  0  0  0  0  0  0  0  0  0
    0.0000   -7.9429    0.0000 O   0  0  0  0  0  0  0  0  0  0  0  0
    0.0000   -7.1179    0.0000 S   0  0  0  0  0  0  0  0  0  0  0  0
    0.0000   -6.2929    0.0000 O   0  0  0  0  0  0  0  0  0  0  0  0
    0.8250   -7.1179    0.0000 O   0  0  0  0  0  0  0  0  0  0  0  0
   -0.8250   -7.1179    0.0000 O   0  0  0  0  0  0  0  0  0  0  0  0
    3.4179   -7.9429    0.0000 O   0  0  0  0  0  0  0  0  0  0  0  0
    3.4179   -7.1179    0.0000 S   0  0  0  0  0  0  0  0  0  0  0  0
    3.4179   -6.2929    0.0000 O   0  0  0  0  0  0  0  0  0  0  0  0
    4.2429   -7.1179    0.0000 O   0  0  0  0  0  0  0  0  0  0  0  0
    2.5929   -7.1179    0.0000 O   0  0  0  0  0  0  0  0  0  0  0  0
  1  2  1  1  0  0  0
  1  3  1  0  0  0  0
  3  4  1  1  0  0  0
  5  4  1  6  0  0  0
  5  6  1  0  0  0  0
  6  7  1  0  0  0  0
  7  8  1  0  0  0  0
  8  9  1  6  0  0  0
  8 10  1  0  0  0  0
 10 11  1  1  0  0  0
 10 12  1  0  0  0  0
  5 12  1  0  0  0  0
 12 13  1  6  0  0  0
 13 14  1  0  0  0  0
  7 15  1  1  0  0  0
 15 16  1  0  0  0  0
  3 17  1  0  0  0  0
 17 18  1  6  0  0  0
 19 18  1  6  0  0  0
 19 20  1  0  0  0  0
 20 21  1  1  0  0  0
 21 22  2  0  0  0  0
 22 23  1  0  0  0  0
 22 24  1  0  0  0  0
 20 25  1  0  0  0  0
 25 26  1  6  0  0  0
 25 27  1  0  0  0  0
 27 28  1  1  0  0  0
 28 29  2  0  0  0  0
 29 30  1  0  0  0  0
 29 31  1  0  0  0  0
 27 32  1  0  0  0  0
 32 33  1  6  0  0  0
 32 34  1  0  0  0  0
 19 34  1  0  0  0  0
 34 35  1  1  0  0  0
 17 36  1  0  0  0  0
 36 37  1  0  0  0  0
  1 37  1  0  0  0  0
 37 38  1  1  0  0  0
  1 39  1  6  0  0  0
 39 40  1  0  0  0  0
 41 42  1  1  0  0  0
 41 43  1  0  0  0  0
 43 44  1  1  0  0  0
 45 44  1  6  0  0  0
 45 46  1  0  0  0  0
 46 47  1  0  0  0  0
 47 48  1  0  0  0  0
 48 49  1  6  0  0  0
 48 50  1  0  0  0  0
 50 51  1  1  0  0  0
 50 52  1  0  0  0  0
 45 52  1  0  0  0  0
 52 53  1  6  0  0  0
 53 54  1  0  0  0  0
 47 55  1  1  0  0  0
 55 56  1  0  0  0  0
 43 57  1  0  0  0  0
 57 58  1  6  0  0  0
 59 58  1  6  0  0  0
 59 60  1  0  0  0  0
 60 61  1  1  0  0  0
 61 62  2  0  0  0  0
 62 63  1  0  0  0  0
 62 64  1  0  0  0  0
 60 65  1  0  0  0  0
 65 66  1  6  0  0  0
 65 67  1  0  0  0  0
 67 68  1  1  0  0  0
 68 69  2  0  0  0  0
 69 70  1  0  0  0  0
 69 71  1  0  0  0  0
 67 72  1  0  0  0  0
 72 73  1  6  0  0  0
 72 74  1  0  0  0  0
 59 74  1  0  0  0  0
 74 75  1  1  0  0  0
 57 76  1  0  0  0  0
 76 77  1  0  0  0  0
 41 77  1  0  0  0  0
 77 78  1  1  0  0  0
 41 79  1  6  0  0  0
 79 80  1  0  0  0  0
 81 82  2  0  0  0  0
 82 83  1  0  0  0  0
 82 84  1  0  0  0  0
 82 85  2  0  0  0  0
 86 87  2  0  0  0  0
 87 88  1  0  0  0  0
 87 89  1  0  0  0  0
 87 90  2  0  0  0  0
 91 92  2  0  0  0  0
 92 93  1  0  0  0  0
 92 94  1  0  0  0  0
 92 95  2  0  0  0  0
M  END
>  <Name>
Dihydrostreptomycin sulfate

>  <CAS>
5490-27-7

>  <Formula>
C21H41N7O12.1.5H2SO4

>  <MolWt>
730.71 

>  <Bioactivity>
A semi-synthetic aminoglycoside antibiotic that is used in the treatment of TUBERCULOSIS.


>  <Pathways>
Microbiology & Virology

>  <Target>
Antibiotic

>  <Receptor>
Others

>  <Reference>
1. CHAVERIAT. Lyon Med. 1952 Dec 14; 187(50):377-9.

$$$$
T2140L
  Mrv1561503291623562D          

 18 20  0  0  0  0            999 V2000
    0.6546    4.9851    0.0000 C   0  0  0  0  0  0  0  0  0  0  0  0
    1.0050    4.2382    0.0000 C   0  0  0  0  0  0  0  0  0  0  0  0
    1.8271    4.1682    0.0000 C   0  0  0  0  0  0  0  0  0  0  0  0
    2.1774    3.4213    0.0000 C   0  0  0  0  0  0  0  0  0  0  0  0
    1.7058    2.7444    0.0000 C   0  0  0  0  0  0  0  0  0  0  0  0
    2.0562    1.9975    0.0000 C   0  0  0  0  0  0  0  0  0  0  0  0
    2.8031    2.3479    0.0000 C   0  0  0  0  0  0  0  0  0  0  0  0
    2.4066    1.2506    0.0000 O   0  0  0  0  0  0  0  0  0  0  0  0
    1.5846    1.3206    0.0000 C   0  0  0  0  0  0  0  0  0  0  0  0
    0.7626    1.3906    0.0000 C   0  0  0  0  0  0  0  0  0  0  0  0
    0.1605    0.8266    0.0000 O   0  0  0  0  0  0  0  0  0  0  0  0
   -0.5620    1.2249    0.0000 C   0  0  0  0  0  0  0  0  0  0  0  0
   -1.3089    0.8745    0.0000 O   0  0  0  0  0  0  0  0  0  0  0  0
   -0.4065    2.0351    0.0000 C   0  0  0  0  0  0  0  0  0  0  0  0
   -0.9705    2.6371    0.0000 C   0  0  0  0  0  0  0  0  0  0  0  0
    0.4122    2.1375    0.0000 C   0  0  0  0  0  0  0  0  0  0  0  0
    0.8838    2.8144    0.0000 C   0  0  0  0  0  0  0  0  0  0  0  0
    0.5334    3.5613    0.0000 C   0  0  0  0  0  0  0  0  0  0  0  0
  1  2  1  0  0  0  0
  2  3  2  0  0  0  0
  3  4  1  0  0  0  0
  4  5  1  0  0  0  0
  5  6  1  0  0  0  0
  6  7  1  0  0  0  0
  6  8  1  0  0  0  0
  8  9  1  0  0  0  0
  6  9  1  0  0  0  0
  9 10  1  0  0  0  0
 10 11  1  0  0  0  0
 11 12  1  0  0  0  0
 12 13  2  0  0  0  0
 12 14  1  0  0  0  0
 14 15  2  0  0  0  0
 14 16  1  0  0  0  0
 10 16  1  0  0  0  0
 16 17  1  0  0  0  0
 17 18  1  0  0  0  0
  2 18  1  0  0  0  0
M  END
>  <Name>
Parthenolide

>  <CAS>
29552-41-8

>  <Formula>
C15H20O3

>  <MolWt>
348.32 

>  <Bioactivity>
(-)-Parthenolide is a sesquiterpene lactone which occurs naturally in the plant feverfew(Tanacetum parthenium) and also promotes the ubiquitination of MDM2 and activates p53 cellular functions.

>  <Pathways>
Ubiquitination

>  <Target>
E3 Ligase activator

>  <Receptor>
MDM2, p53 

>  <Reference>
1. Lu C, et al. J Cell Biochem. 2014 Aug;115(8):1458-66.

$$$$
T1020
  Mrv1561503291623562D          

 41 43  0  0  1  0            999 V2000
    0.9020   -0.2587    0.0000 C   0  0  0  0  0  0  0  0  0  0  0  0
    0.9020   -1.0837    0.0000 O   0  0  0  0  0  0  0  0  0  0  0  0
    1.6165   -1.4962    0.0000 C   0  0  0  0  0  0  0  0  0  0  0  0
    2.3309   -1.0837    0.0000 O   0  0  0  0  0  0  0  0  0  0  0  0
    3.0454   -1.4962    0.0000 C   0  0  0  0  0  0  0  0  0  0  0  0
    3.0454   -2.3212    0.0000 C   0  0  0  0  0  0  0  0  0  0  0  0
    3.7599   -2.7337    0.0000 O   0  0  0  0  0  0  0  0  0  0  0  0
    2.3309   -2.7337    0.0000 C   0  0  0  0  0  0  0  0  0  0  0  0
    2.3309   -3.5587    0.0000 N   0  0  0  0  0  0  0  0  0  0  0  0
    1.6165   -2.3212    0.0000 C   0  0  0  0  0  0  0  0  0  0  0  0
    3.7599   -1.0837    0.0000 C   0  0  0  0  0  0  0  0  0  0  0  0
    1.6165    0.1538    0.0000 C   0  0  0  0  0  0  0  0  0  0  0  0
    1.6165    0.9788    0.0000 C   0  0  0  0  0  0  0  0  0  0  0  0
    2.4289    0.8355    0.0000 O   0  0  0  0  0  0  0  0  0  0  0  0
    0.9020    1.3913    0.0000 C   0  0  0  0  0  0  0  0  0  0  0  0
    0.1875    0.9788    0.0000 C   0  0  0  0  0  0  0  0  0  0  0  0
    0.1875    0.1538    0.0000 C   0  0  0  0  0  0  0  0  0  0  0  0
   -0.5270   -0.2587    0.0000 C   0  0  0  0  0  0  0  0  0  0  0  0
   -1.2414    0.1538    0.0000 C   0  0  0  0  0  0  0  0  0  0  0  0
   -1.2414    0.9788    0.0000 C   0  0  0  0  0  0  0  0  0  0  0  0
   -0.5270    1.3913    0.0000 C   0  0  0  0  0  0  0  0  0  0  0  0
   -0.5270    2.2163    0.0000 O   0  0  0  0  0  0  0  0  0  0  0  0
   -1.9559    1.3913    0.0000 C   0  0  0  0  0  0  0  0  0  0  0  0
   -1.9559    2.2163    0.0000 O   0  0  0  0  0  0  0  0  0  0  0  0
   -2.6704    0.9788    0.0000 C   0  0  0  0  0  0  0  0  0  0  0  0
   -2.6704    0.1538    0.0000 C   0  0  0  0  0  0  0  0  0  0  0  0
   -1.9559   -0.2587    0.0000 C   0  0  0  0  0  0  0  0  0  0  0  0
   -1.9559   -1.0837    0.0000 O   0  0  0  0  0  0  0  0  0  0  0  0
   -3.3848   -0.2587    0.0000 C   0  0  0  0  0  0  0  0  0  0  0  0
   -4.0993    0.1538    0.0000 C   0  0  0  0  0  0  0  0  0  0  0  0
   -4.0993    0.9788    0.0000 C   0  0  0  0  0  0  0  0  0  0  0  0
   -3.3848    1.3913    0.0000 C   0  0  0  0  0  0  0  0  0  0  0  0
   -3.3848   -1.0837    0.0000 O   0  0  0  0  0  0  0  0  0  0  0  0
   -4.0993   -1.4962    0.0000 C   0  0  0  0  0  0  0  0  0  0  0  0
   -0.5270   -1.0837    0.0000 O   0  0  0  0  0  0  0  0  0  0  0  0
    1.8986    1.7540    0.0000 C   0  0  0  0  0  0  0  0  0  0  0  0
    2.7111    1.8973    0.0000 O   0  0  0  0  0  0  0  0  0  0  0  0
    1.3683    2.3860    0.0000 C   0  0  0  0  0  0  0  0  0  0  0  0
    1.6505    3.1613    0.0000 O   0  0  0  0  0  0  0  0  0  0  0  0
    6.9420    0.0000    0.0000 H   0  3  0  0  0  0  0  0  0  0  0  0
    6.1170    0.0000    0.0000 Cl  0  5  0  0  0  0  0  0  0  0  0  0
  1  2  1  0  0  0  0
  2  3  1  0  0  0  0
  3  4  1  0  0  0  0
  4  5  1  0  0  0  0
  5  6  1  0  0  0  0
  6  7  1  0  0  0  0
  6  8  1  0  0  0  0
  8  9  1  0  0  0  0
  8 10  1  0  0  0  0
  3 10  1  0  0  0  0
  5 11  1  0  0  0  0
  1 12  1  0  0  0  0
 12 13  1  0  0  0  0
 13 14  1  0  0  0  0
 13 15  1  0  0  0  0
 15 16  1  0  0  0  0
 16 17  2  0  0  0  0
  1 17  1  0  0  0  0
 17 18  1  0  0  0  0
 18 19  2  0  0  0  0
 19 20  1  0  0  0  0
 20 21  2  0  0  0  0
 16 21  1  0  0  0  0
 21 22  1  0  0  0  0
 20 23  1  0  0  0  0
 23 24  2  0  0  0  0
 23 25  1  0  0  0  0
 25 26  2  0  0  0  0
 26 27  1  0  0  0  0
 19 27  1  0  0  0  0
 27 28  2  0  0  0  0
 26 29  1  0  0  0  0
 29 30  2  0  0  0  0
 30 31  1  0  0  0  0
 31 32  2  0  0  0  0
 25 32  1  0  0  0  0
 29 33  1  0  0  0  0
 33 34  1  0  0  0  0
 18 35  1  0  0  0  0
 13 36  1  0  0  0  0
 36 37  2  0  0  0  0
 36 38  1  0  0  0  0
 38 39  1  0  0  0  0
M  CHG  2  40   1  41  -1
M  END
>  <Name>
Doxorubicin (Adriamycin)

>  <CAS>
25316-40-9

>  <Formula>
C27H29NO11.HCl

>  <MolWt>
579.99 

>  <Bioactivity>
Antineoplastic antibiotic obtained from Streptomyces peucetius. It is a hydroxy derivative of DAUNORUBICIN.


>  <Pathways>
DNA Damage/DNA Repair

>  <Target>
Topoisomerase inhibitor

>  <Receptor>
Topoisomerase II

>  <Reference>
1. Sun W, et al. Cancer Res, 2009, 69(10), 4294-4300.

$$$$
58-85-5
  Mrv1561503291623562D          

 16 17  0  0  0  0            999 V2000
    1.4521   -1.5649    0.0000 C   0  0  0  0  0  0  0  0  0  0  0  0
    0.7376   -1.1524    0.0000 C   0  0  0  0  0  0  0  0  0  0  0  0
    0.6514   -0.3319    0.0000 C   0  0  0  0  0  0  0  0  0  0  0  0
   -0.1556   -0.1604    0.0000 C   0  0  0  0  0  0  0  0  0  0  0  0
   -0.2419    0.6601    0.0000 N   0  0  0  0  0  0  0  0  0  0  0  0
    0.5118    0.9957    0.0000 C   0  0  0  0  0  0  0  0  0  0  0  0
    1.0639    0.3826    0.0000 N   0  0  0  0  0  0  0  0  0  0  0  0
    0.6833    1.8027    0.0000 O   0  0  0  0  0  0  0  0  0  0  0  0
   -0.5681   -0.8748    0.0000 C   0  0  0  0  0  0  0  0  0  0  0  0
   -0.0161   -1.4879    0.0000 S   0  0  0  0  0  0  0  0  0  0  0  0
    2.1665   -1.1524    0.0000 C   0  0  0  0  0  0  0  0  0  0  0  0
    2.8810   -1.5649    0.0000 C   0  0  0  0  0  0  0  0  0  0  0  0
    3.5955   -1.1524    0.0000 C   0  0  0  0  0  0  0  0  0  0  0  0
    4.3099   -1.5649    0.0000 C   0  0  0  0  0  0  0  0  0  0  0  0
    5.0244   -1.1524    0.0000 O   0  0  0  0  0  0  0  0  0  0  0  0
    4.3099   -2.3899    0.0000 O   0  0  0  0  0  0  0  0  0  0  0  0
  1  2  1  0  0  0  0
  2  3  1  0  0  0  0
  3  4  1  0  0  0  0
  4  5  1  0  0  0  0
  5  6  1  0  0  0  0
  6  7  1  0  0  0  0
  3  7  1  0  0  0  0
  6  8  2  0  0  0  0
  4  9  1  0  0  0  0
  9 10  1  0  0  0  0
  2 10  1  0  0  0  0
  1 11  1  0  0  0  0
 11 12  1  0  0  0  0
 12 13  1  0  0  0  0
 13 14  1  0  0  0  0
 14 15  1  0  0  0  0
 14 16  2  0  0  0  0
M  END
>  <Name>
D-Biotin

>  <CAS>
58-85-5

>  <Formula>
C10H16N2O3S

>  <MolWt>
244.31 

>  <Bioactivity>
Biotin is a water-soluble B-vitamin and is necessary for cell growth, the production of fatty acids, and the metabolism of fats and amino acids.

>  <Pathways>
Vitamin

>  <Target>
VB

>  <Receptor>
VB7

>  <Reference>
1. G. Gabant, et al. J. Mass Spectrom. 2008; 43: 360–370

$$$$
100427-26-7
  Mrv1561503291623562D          

 47 48  0  0  0  0            999 V2000
    0.0466    4.7258    0.0000 H   0  3  0  0  0  0  0  0  0  0  0  0
    1.4755    2.2508    0.0000 C   0  0  0  0  0  0  0  0  0  0  0  0
    1.4755    1.4258    0.0000 C   0  0  0  0  0  0  0  0  0  0  0  0
    2.1900    1.0133    0.0000 C   0  0  0  0  0  0  0  0  0  0  0  0
    2.1900    0.1883    0.0000 C   0  0  0  0  0  0  0  0  0  0  0  0
    2.9045   -0.2242    0.0000 C   0  0  0  0  0  0  0  0  0  0  0  0
    3.6190    0.1883    0.0000 N   0  0  0  0  0  0  0  0  0  0  0  0
    3.6190    1.0133    0.0000 C   0  0  0  0  0  0  0  0  0  0  0  0
    2.9045    1.4258    0.0000 C   0  0  0  0  0  0  0  0  0  0  0  0
    2.9045    2.2508    0.0000 C   0  0  0  0  0  0  0  0  0  0  0  0
    3.6190    2.6633    0.0000 O   0  0  0  0  0  0  0  0  0  0  0  0
    3.6190    3.4883    0.0000 C   0  0  0  0  0  0  0  0  0  0  0  0
    2.1900    2.6633    0.0000 O   0  0  0  0  0  0  0  0  0  0  0  0
    4.3334    1.4258    0.0000 C   0  0  0  0  0  0  0  0  0  0  0  0
    2.9045   -1.0492    0.0000 C   0  0  0  0  0  0  0  0  0  0  0  0
    1.4755   -0.2242    0.0000 C   0  0  0  0  0  0  0  0  0  0  0  0
    1.4755   -1.0492    0.0000 O   0  0  0  0  0  0  0  0  0  0  0  0
    0.7611   -1.4617    0.0000 C   0  0  0  0  0  0  0  0  0  0  0  0
    0.0466   -1.8742    0.0000 C   0  0  0  0  0  0  0  0  0  0  0  0
   -0.6679   -1.4617    0.0000 N   0  0  0  0  0  0  0  0  0  0  0  0
   -1.3823   -1.8742    0.0000 C   0  0  0  0  0  0  0  0  0  0  0  0
   -2.0968   -1.4617    0.0000 C   0  0  0  0  0  0  0  0  0  0  0  0
   -2.8113   -1.8742    0.0000 C   0  0  0  0  0  0  0  0  0  0  0  0
   -3.5258   -1.4617    0.0000 C   0  0  0  0  0  0  0  0  0  0  0  0
   -4.2402   -1.8742    0.0000 C   0  0  0  0  0  0  0  0  0  0  0  0
   -4.9547   -1.4617    0.0000 C   0  0  0  0  0  0  0  0  0  0  0  0
   -4.9547   -0.6367    0.0000 C   0  0  0  0  0  0  0  0  0  0  0  0
   -4.2402   -0.2242    0.0000 C   0  0  0  0  0  0  0  0  0  0  0  0
   -3.5258   -0.6367    0.0000 C   0  0  0  0  0  0  0  0  0  0  0  0
   -2.8113   -2.6992    0.0000 C   0  0  0  0  0  0  0  0  0  0  0  0
   -2.0968   -3.1117    0.0000 C   0  0  0  0  0  0  0  0  0  0  0  0
   -2.0968   -3.9367    0.0000 C   0  0  0  0  0  0  0  0  0  0  0  0
   -2.8113   -4.3492    0.0000 C   0  0  0  0  0  0  0  0  0  0  0  0
   -3.5258   -3.9367    0.0000 C   0  0  0  0  0  0  0  0  0  0  0  0
   -3.5258   -3.1117    0.0000 C   0  0  0  0  0  0  0  0  0  0  0  0
   -0.6679   -0.6367    0.0000 C   0  0  0  0  0  0  0  0  0  0  0  0
    1.1736   -2.1762    0.0000 C   0  0  0  0  0  0  0  0  0  0  0  0
    0.3486   -0.7472    0.0000 C   0  0  0  0  0  0  0  0  0  0  0  0
    0.7611    0.1883    0.0000 O   0  0  0  0  0  0  0  0  0  0  0  0
    0.7611    1.0133    0.0000 C   0  0  0  0  0  0  0  0  0  0  0  0
    0.0466    1.4258    0.0000 C   0  0  0  0  0  0  0  0  0  0  0  0
    0.0466    2.2508    0.0000 C   0  0  0  0  0  0  0  0  0  0  0  0
    0.7611    2.6633    0.0000 C   0  0  0  0  0  0  0  0  0  0  0  0
    0.7611    3.4883    0.0000 N   0  3  0  0  0  0  0  0  0  0  0  0
    0.0466    3.9008    0.0000 O   0  5  0  0  0  0  0  0  0  0  0  0
    1.4755    3.9008    0.0000 O   0  0  0  0  0  0  0  0  0  0  0  0
    6.6906    0.0000    0.0000 Cl  0  5  0  0  0  0  0  0  0  0  0  0
  2  3  2  0  0  0  0
  3  4  1  0  0  0  0
  4  5  1  0  0  0  0
  5  6  2  0  0  0  0
  6  7  1  0  0  0  0
  7  8  1  0  0  0  0
  8  9  2  0  0  0  0
  4  9  1  0  0  0  0
  9 10  1  0  0  0  0
 10 11  1  0  0  0  0
 11 12  1  0  0  0  0
 10 13  2  0  0  0  0
  8 14  1  0  0  0  0
  6 15  1  0  0  0  0
  5 16  1  0  0  0  0
 16 17  1  0  0  0  0
 17 18  1  0  0  0  0
 18 19  1  0  0  0  0
 19 20  1  0  0  0  0
 20 21  1  0  0  0  0
 21 22  1  0  0  0  0
 22 23  1  0  0  0  0
 23 24  1  0  0  0  0
 24 25  2  0  0  0  0
 25 26  1  0  0  0  0
 26 27  2  0  0  0  0
 27 28  1  0  0  0  0
 28 29  2  0  0  0  0
 24 29  1  0  0  0  0
 23 30  1  0  0  0  0
 30 31  2  0  0  0  0
 31 32  1  0  0  0  0
 32 33  2  0  0  0  0
 33 34  1  0  0  0  0
 34 35  2  0  0  0  0
 30 35  1  0  0  0  0
 20 36  1  0  0  0  0
 18 37  1  0  0  0  0
 18 38  1  0  0  0  0
 16 39  2  0  0  0  0
  3 40  1  0  0  0  0
 40 41  2  0  0  0  0
 41 42  1  0  0  0  0
 42 43  2  0  0  0  0
  2 43  1  0  0  0  0
 43 44  1  0  0  0  0
 44 45  1  0  0  0  0
 44 46  2  0  0  0  0
M  CHG  4   1   1  44   1  45  -1  47  -1
M  END
>  <Name>
Lercanidipine

>  <CAS>
100427-26-7

>  <Formula>
C36H41N3O6

>  <MolWt>
611.73 

>  <Bioactivity>
Lercanidipine is a calcium channel blocker of the dihydropyridine class.

>  <Pathways>
Membrane Transporter/Ion Channel

>  <Target>
Calcium Channel inhibitor

>  <Receptor>
Calcium Channel

>  <Reference>
1. Barrios V, et al. Int J Clin Pract, 2006. 60(11): p. 1364-70.

$$$$
116314-67-1
  Mrv1561503291623562D          

 22 22  0  0  0  0            999 V2000
    1.4289    0.8250    0.0000 C   0  0  0  0  0  0  0  0  0  0  0  0
    1.4289    0.0000    0.0000 C   0  0  0  0  0  0  0  0  0  0  0  0
    2.1434   -0.4125    0.0000 C   0  0  0  0  0  0  0  0  0  0  0  0
    2.1434   -1.2375    0.0000 C   0  0  0  0  0  0  0  0  0  0  0  0
    2.8579   -1.6500    0.0000 C   0  0  0  0  0  0  0  0  0  0  0  0
    2.8579   -2.4750    0.0000 N   0  0  0  0  0  0  0  0  0  0  0  0
    3.5724   -2.8875    0.0000 C   0  0  0  0  0  0  0  0  0  0  0  0
    3.5724   -3.7125    0.0000 C   0  0  0  0  0  0  0  0  0  0  0  0
    2.1434   -2.8875    0.0000 C   0  0  0  0  0  0  0  0  0  0  0  0
    2.1434   -3.7125    0.0000 C   0  0  0  0  0  0  0  0  0  0  0  0
    3.5724   -1.2375    0.0000 O   0  0  0  0  0  0  0  0  0  0  0  0
    1.4289   -1.6500    0.0000 C   0  0  0  0  0  0  0  0  0  0  0  0
    0.7145   -2.0625    0.0000 N   0  0  0  0  0  0  0  0  0  0  0  0
    0.7145   -0.4125    0.0000 C   0  0  0  0  0  0  0  0  0  0  0  0
   -0.0000    0.0000    0.0000 C   0  0  0  0  0  0  0  0  0  0  0  0
   -0.7145   -0.4125    0.0000 O   0  0  0  0  0  0  0  0  0  0  0  0
   -0.0000    0.8250    0.0000 C   0  0  0  0  0  0  0  0  0  0  0  0
    0.7145    1.2375    0.0000 C   0  0  0  0  0  0  0  0  0  0  0  0
    0.7145    2.0625    0.0000 N   0  3  0  0  0  0  0  0  0  0  0  0
    0.0000    2.4750    0.0000 O   0  0  0  0  0  0  0  0  0  0  0  0
    1.4289    2.4750    0.0000 O   0  5  0  0  0  0  0  0  0  0  0  0
   -0.7145    1.2375    0.0000 O   0  0  0  0  0  0  0  0  0  0  0  0
  1  2  2  0  0  0  0
  2  3  1  0  0  0  0
  3  4  2  0  0  0  0
  4  5  1  0  0  0  0
  5  6  1  0  0  0  0
  6  7  1  0  0  0  0
  7  8  1  0  0  0  0
  6  9  1  0  0  0  0
  9 10  1  0  0  0  0
  5 11  2  0  0  0  0
  4 12  1  0  0  0  0
 12 13  3  0  0  0  0
  2 14  1  0  0  0  0
 14 15  2  0  0  0  0
 15 16  1  0  0  0  0
 15 17  1  0  0  0  0
 17 18  2  0  0  0  0
  1 18  1  0  0  0  0
 18 19  1  0  0  0  0
 19 20  2  0  0  0  0
 19 21  1  0  0  0  0
 17 22  1  0  0  0  0
M  CHG  2  19   1  21  -1
M  END
>  <Name>
Entacapone

>  <CAS>
116314-67-1

>  <Formula>
C14H15N3O5

>  <MolWt>
305.29 

>  <Bioactivity>
Entacapone (INN) is a drug that functions as a catechol-O-methyl transferase (COMT) inhibitor. It is used in the treatment of Parkinson's disease.

>  <Pathways>
Neuroscience

>  <Target>
COMT inhibitor

>  <Receptor>
catechol-O-methyl transferase 

>  <Reference>
1. Poewe WH, et al. Acta Neurol Scand. 2002 Apr;105(4):245-55. 

$$$$
79165-06-3
  Mrv1561503291623562D          

 60 64  0  0  0  0            999 V2000
    1.0819    1.3283    0.0000 C   0  0  0  0  0  0  0  0  0  0  0  0
    0.3066    1.0461    0.0000 C   0  0  0  0  0  0  0  0  0  0  0  0
   -0.5184    1.0461    0.0000 C   0  0  0  0  0  0  0  0  0  0  0  0
   -0.9309    1.7606    0.0000 C   0  0  0  0  0  0  0  0  0  0  0  0
   -1.7559    1.7606    0.0000 C   0  0  0  0  0  0  0  0  0  0  0  0
   -2.1684    1.0461    0.0000 C   0  0  0  0  0  0  0  0  0  0  0  0
   -1.7559    0.3316    0.0000 C   0  0  0  0  0  0  0  0  0  0  0  0
   -0.9309    0.3316    0.0000 C   0  0  0  0  0  0  0  0  0  0  0  0
   -0.5184   -0.3828    0.0000 C   0  0  0  0  0  0  0  0  0  0  0  0
    0.3066   -0.3828    0.0000 C   0  0  0  0  0  0  0  0  0  0  0  0
    0.7191    0.3316    0.0000 C   0  0  0  0  0  0  0  0  0  0  0  0
    1.5441    0.3316    0.0000 O   0  0  0  0  0  0  0  0  0  0  0  0
    1.9566   -0.3828    0.0000 C   0  0  0  0  0  0  0  0  0  0  0  0
    2.7816   -0.3828    0.0000 C   0  0  0  0  0  0  0  0  0  0  0  0
    3.1941   -1.0973    0.0000 C   0  0  0  0  0  0  0  0  0  0  0  0
    2.7816   -1.8118    0.0000 C   0  0  0  0  0  0  0  0  0  0  0  0
    1.9566   -1.8118    0.0000 C   0  0  0  0  0  0  0  0  0  0  0  0
    1.5441   -1.0973    0.0000 O   0  0  0  0  0  0  0  0  0  0  0  0
    1.5441   -2.5263    0.0000 C   0  0  0  0  0  0  0  0  0  0  0  0
    0.7191   -2.5263    0.0000 O   0  0  0  0  0  0  0  0  0  0  0  0
    1.9566   -3.2407    0.0000 O   0  0  0  0  0  0  0  0  0  0  0  0
    3.1941   -2.5263    0.0000 O   0  0  0  0  0  0  0  0  0  0  0  0
    4.0191   -1.0973    0.0000 O   0  0  0  0  0  0  0  0  0  0  0  0
    3.1941    0.3316    0.0000 O   0  0  0  0  0  0  0  0  0  0  0  0
    4.0191    0.3316    0.0000 C   0  0  0  0  0  0  0  0  0  0  0  0
    4.4316    1.0461    0.0000 C   0  0  0  0  0  0  0  0  0  0  0  0
    5.2566    1.0461    0.0000 C   0  0  0  0  0  0  0  0  0  0  0  0
    5.6691    0.3316    0.0000 C   0  0  0  0  0  0  0  0  0  0  0  0
    5.2566   -0.3828    0.0000 C   0  0  0  0  0  0  0  0  0  0  0  0
    4.4316   -0.3828    0.0000 O   0  0  0  0  0  0  0  0  0  0  0  0
    5.6691   -1.0973    0.0000 C   0  0  0  0  0  0  0  0  0  0  0  0
    6.4941   -1.0973    0.0000 O   0  0  0  0  0  0  0  0  0  0  0  0
    5.2566   -1.8118    0.0000 O   0  0  0  0  0  0  0  0  0  0  0  0
    6.4941    0.3316    0.0000 O   0  0  0  0  0  0  0  0  0  0  0  0
    5.6691    1.7606    0.0000 O   0  0  0  0  0  0  0  0  0  0  0  0
    4.0191    1.7606    0.0000 O   0  0  0  0  0  0  0  0  0  0  0  0
   -1.3434   -0.3828    0.0000 C   0  0  0  0  0  0  0  0  0  0  0  0
   -2.1684   -0.3828    0.0000 C   0  0  0  0  0  0  0  0  0  0  0  0
   -1.7559   -1.0973    0.0000 O   0  0  0  0  0  0  0  0  0  0  0  0
   -2.9934   -0.3828    0.0000 C   0  0  0  0  0  0  0  0  0  0  0  0
   -3.4059    0.3316    0.0000 C   0  0  0  0  0  0  0  0  0  0  0  0
   -2.9934    1.0461    0.0000 C   0  0  0  0  0  0  0  0  0  0  0  0
   -3.4059    1.7606    0.0000 C   0  0  0  0  0  0  0  0  0  0  0  0
   -4.2309    1.7606    0.0000 C   0  0  0  0  0  0  0  0  0  0  0  0
   -4.6434    1.0461    0.0000 C   0  0  0  0  0  0  0  0  0  0  0  0
   -4.2309    0.3316    0.0000 C   0  0  0  0  0  0  0  0  0  0  0  0
   -4.6434   -0.3828    0.0000 C   0  0  0  0  0  0  0  0  0  0  0  0
   -5.4684   -0.3828    0.0000 C   0  0  0  0  0  0  0  0  0  0  0  0
   -5.8809    0.3316    0.0000 C   0  0  0  0  0  0  0  0  0  0  0  0
   -5.4684    1.0461    0.0000 C   0  0  0  0  0  0  0  0  0  0  0  0
   -5.4972   -1.2073    0.0000 C   0  0  0  0  0  0  0  0  0  0  0  0
   -6.1680   -0.8200    0.0000 C   0  0  0  0  0  0  0  0  0  0  0  0
   -6.1392   -1.6445    0.0000 O   0  0  0  0  0  0  0  0  0  0  0  0
   -6.8964   -0.4327    0.0000 O   0  0  0  0  0  0  0  0  0  0  0  0
   -5.0559    1.7606    0.0000 C   0  0  0  0  0  0  0  0  0  0  0  0
   -2.5809    1.7606    0.0000 C   0  0  0  0  0  0  0  0  0  0  0  0
   -2.0821    1.8666    0.0000 C   0  0  0  0  0  0  0  0  0  0  0  0
    0.1634    1.8586    0.0000 C   0  0  0  0  0  0  0  0  0  0  0  0
    8.8513    0.0000    0.0000 N   0  0  0  0  0  0  0  0  0  0  0  0
    0.0000   -4.8907    0.0000 N   0  0  0  0  0  0  0  0  0  0  0  0
  1  2  1  0  0  0  0
  2  3  1  0  0  0  0
  3  4  1  0  0  0  0
  4  5  1  0  0  0  0
  5  6  1  0  0  0  0
  6  7  1  0  0  0  0
  7  8  1  0  0  0  0
  3  8  1  0  0  0  0
  8  9  1  0  0  0  0
  9 10  1  0  0  0  0
 10 11  1  0  0  0  0
  2 11  1  0  0  0  0
 11 12  1  0  0  0  0
 12 13  1  0  0  0  0
 13 14  1  0  0  0  0
 14 15  1  0  0  0  0
 15 16  1  0  0  0  0
 16 17  1  0  0  0  0
 17 18  1  0  0  0  0
 13 18  1  0  0  0  0
 17 19  1  0  0  0  0
 19 20  2  0  0  0  0
 19 21  1  0  0  0  0
 16 22  1  0  0  0  0
 15 23  1  0  0  0  0
 14 24  1  0  0  0  0
 24 25  1  0  0  0  0
 25 26  1  0  0  0  0
 26 27  1  0  0  0  0
 27 28  1  0  0  0  0
 28 29  1  0  0  0  0
 29 30  1  0  0  0  0
 25 30  1  0  0  0  0
 29 31  1  0  0  0  0
 31 32  2  0  0  0  0
 31 33  1  0  0  0  0
 28 34  1  0  0  0  0
 27 35  1  0  0  0  0
 26 36  1  0  0  0  0
  8 37  1  0  0  0  0
  7 38  1  0  0  0  0
 38 39  2  0  0  0  0
 38 40  1  0  0  0  0
 40 41  2  0  0  0  0
 41 42  1  0  0  0  0
  6 42  1  0  0  0  0
 42 43  1  0  0  0  0
 43 44  1  0  0  0  0
 44 45  1  0  0  0  0
 45 46  1  0  0  0  0
 41 46  1  0  0  0  0
 46 47  1  0  0  0  0
 47 48  1  0  0  0  0
 48 49  1  0  0  0  0
 49 50  1  0  0  0  0
 45 50  1  0  0  0  0
 48 51  1  0  0  0  0
 48 52  1  0  0  0  0
 52 53  2  0  0  0  0
 52 54  1  0  0  0  0
 45 55  1  0  0  0  0
 42 56  1  0  0  0  0
  6 57  1  0  0  0  0
  2 58  1  0  0  0  0
M  END
>  <Name>
Diammonium Glycyrrhizinate

>  <CAS>
79165-06-3

>  <Formula>
C42H62O16.2H3N

>  <MolWt>
857.00 

>  <Bioactivity>
Diammonium glycyrrhizinate is a widely used anti-inflammatory agent isolated from the licorice root. It is metabolized to GLYCYRRHETINIC ACID, which inhibits 11-BETA-HYDROXYSTEROID DEHYDROGENASES and other enzymes involved in the metabolism of CORTICOSTEROIDS. Therefore, glycyrrhizic acid, which is the main and sweet component of licorice, has been investigated for its ability to cause hypermineralocorticoidism with sodium retention and potassium loss, edema, increased blood pressure, as well as depression of the renin-angiotensin-aldosterone system.

>  <Pathways>
Endocrinology/ Hormones

>  <Target>
Corticosteroid receptor inhibitor

>  <Receptor>
11-beta-hydroxysteroid dehydrogenase

>  <Reference>
1. Jin J, et al. Food Chem Toxicol. 2014 Nov;73:95-104.

$$$$
T1378
  Mrv1561503291623562D          

 14 15  0  0  0  0            999 V2000
    0.1067    0.7634    0.0000 O   0  0  0  0  0  0  0  0  0  0  0  0
   -0.6078    1.1759    0.0000 C   0  0  0  0  0  0  0  0  0  0  0  0
   -1.3222    0.7634    0.0000 N   0  0  0  0  0  0  0  0  0  0  0  0
   -1.3222   -0.0616    0.0000 C   0  0  0  0  0  0  0  0  0  0  0  0
   -0.6548   -0.5465    0.0000 C   0  0  0  0  0  0  0  0  0  0  0  0
   -0.9097   -1.3312    0.0000 C   0  0  0  0  0  0  0  0  0  0  0  0
   -1.7347   -1.3312    0.0000 C   0  0  0  0  0  0  0  0  0  0  0  0
   -1.9897   -0.5465    0.0000 O   0  0  0  0  0  0  0  0  0  0  0  0
   -2.0367    1.1759    0.0000 C   0  0  0  0  0  0  0  0  0  0  0  0
   -2.0367    2.0009    0.0000 C   0  0  0  0  0  0  0  0  0  0  0  0
   -2.7512    2.4134    0.0000 F   0  0  0  0  0  0  0  0  0  0  0  0
   -1.3222    2.4134    0.0000 C   0  0  0  0  0  0  0  0  0  0  0  0
   -0.6078    2.0009    0.0000 N   0  0  0  0  0  0  0  0  0  0  0  0
   -1.3222    3.2384    0.0000 O   0  0  0  0  0  0  0  0  0  0  0  0
  1  2  2  0  0  0  0
  2  3  1  0  0  0  0
  3  4  1  0  0  0  0
  4  5  1  0  0  0  0
  5  6  1  0  0  0  0
  6  7  1  0  0  0  0
  7  8  1  0  0  0  0
  4  8  1  0  0  0  0
  3  9  1  0  0  0  0
  9 10  2  0  0  0  0
 10 11  1  0  0  0  0
 10 12  1  0  0  0  0
 12 13  1  0  0  0  0
  2 13  1  0  0  0  0
 12 14  2  0  0  0  0
M  END
>  <Name>
Tegafur (FT-207, NSC 148958)

>  <CAS>
17902-23-7

>  <Formula>
C8H9FN2O3

>  <MolWt>
200.17 

>  <Bioactivity>
Ftorafur is a substance being used in the treatment of some types of cancer. It is a combination of tegafur and uracil. The tegafur is taken up by the cancer cells and breaks down into 5-FU, a substance that kills tumor cells. The uracil causes higher amounts of 5-FU to stay inside the cells and kill them. Ftorafur is a type of antimetabolite.

>  <Pathways>
DNA Damage/DNA Repair

>  <Target>
DNA/RNA Synthesis inhibitor

>  <Receptor>
DNA Synthesis

>  <Reference>
1. Sotaro Sadahiro, et al. Cancer Chemotherapy and Pharmacology. 2012, 70 (2): 285-291.

$$$$
T1381
  Mrv1561503291623562D          

 79 87  0  0  0  0            999 V2000
    3.9876    2.3046    0.0000 C   0  0  0  0  0  0  0  0  0  0  0  0
    3.2233    1.9940    0.0000 C   0  0  0  0  0  0  0  0  0  0  0  0
    3.1102    1.1768    0.0000 C   0  0  0  0  0  0  0  0  0  0  0  0
    3.7613    0.6702    0.0000 C   0  0  0  0  0  0  0  0  0  0  0  0
    3.6482   -0.1470    0.0000 C   0  0  0  0  0  0  0  0  0  0  0  0
    2.8839   -0.4576    0.0000 C   0  0  0  0  0  0  0  0  0  0  0  0
    2.2327    0.0490    0.0000 C   0  0  0  0  0  0  0  0  0  0  0  0
    2.3459    0.8662    0.0000 O   0  0  0  0  0  0  0  0  0  0  0  0
    1.5816    0.5556    0.0000 C   0  0  0  0  0  0  0  0  0  0  0  0
    0.8173    0.2449    0.0000 C   0  0  0  0  0  0  0  0  0  0  0  0
    0.7041   -0.5723    0.0000 C   0  0  0  0  0  0  0  0  0  0  0  0
    1.3553   -1.0789    0.0000 C   0  0  0  0  0  0  0  0  0  0  0  0
    2.1196   -0.7682    0.0000 O   0  0  0  0  0  0  0  0  0  0  0  0
    1.2422   -1.8961    0.0000 C   0  0  0  0  0  0  0  0  0  0  0  0
    0.4779   -2.2067    0.0000 C   0  0  0  0  0  0  0  0  0  0  0  0
    0.3647   -3.0239    0.0000 C   0  0  0  0  0  0  0  0  0  0  0  0
   -0.3996   -3.3345    0.0000 C   0  0  0  0  0  0  0  0  0  0  0  0
   -1.0507   -2.8279    0.0000 C   0  0  0  0  0  0  0  0  0  0  0  0
   -0.9376   -2.0107    0.0000 C   0  0  0  0  0  0  0  0  0  0  0  0
   -1.5887   -1.5041    0.0000 C   0  0  0  0  0  0  0  0  0  0  0  0
   -1.4756   -0.6869    0.0000 C   0  0  0  0  0  0  0  0  0  0  0  0
   -2.1267   -0.1803    0.0000 C   0  0  0  0  0  0  0  0  0  0  0  0
   -2.9496   -0.2396    0.0000 C   0  0  0  0  0  0  0  0  0  0  0  0
   -3.2602    0.5247    0.0000 O   0  0  0  0  0  0  0  0  0  0  0  0
   -2.6293    1.0563    0.0000 C   0  0  0  0  0  0  0  0  0  0  0  0
   -2.0136    0.6369    0.0000 C   0  0  0  0  0  0  0  0  0  0  0  0
   -1.2493    0.9475    0.0000 C   0  0  0  0  0  0  0  0  0  0  0  0
   -1.1741    1.8339    0.0000 C   0  0  0  0  0  0  0  0  0  0  0  0
   -1.8746    2.2697    0.0000 C   0  0  0  0  0  0  0  0  0  0  0  0
   -2.6022    1.8809    0.0000 C   0  0  0  0  0  0  0  0  0  0  0  0
   -3.3028    2.3166    0.0000 N   0  0  0  0  0  0  0  0  0  0  0  0
   -4.0304    1.9278    0.0000 O   0  0  0  0  0  0  0  0  0  0  0  0
   -1.8475    3.0942    0.0000 C   0  0  0  0  0  0  0  0  0  0  0  0
   -0.5982    0.4409    0.0000 C   0  0  0  0  0  0  0  0  0  0  0  0
   -0.7113   -0.3763    0.0000 O   0  0  0  0  0  0  0  0  0  0  0  0
    0.1661    0.7515    0.0000 O   0  0  0  0  0  0  0  0  0  0  0  0
   -1.9263    1.4572    0.0000 O   0  0  0  0  0  0  0  0  0  0  0  0
   -1.8150   -3.1385    0.0000 C   0  0  0  0  0  0  0  0  0  0  0  0
    1.0159   -3.5305    0.0000 C   0  0  0  0  0  0  0  0  0  0  0  0
    4.5256    0.9808    0.0000 C   0  0  0  0  0  0  0  0  0  0  0  0
   14.9673    1.0399    0.0000 C   0  0  0  0  0  0  0  0  0  0  0  0
   14.2030    0.7293    0.0000 C   0  0  0  0  0  0  0  0  0  0  0  0
   14.0899   -0.0879    0.0000 C   0  0  0  0  0  0  0  0  0  0  0  0
   13.3256   -0.3985    0.0000 C   0  0  0  0  0  0  0  0  0  0  0  0
   12.6744    0.1081    0.0000 C   0  0  0  0  0  0  0  0  0  0  0  0
   12.0233    0.6146    0.0000 C   0  0  0  0  0  0  0  0  0  0  0  0
   11.2590    0.3040    0.0000 C   0  0  0  0  0  0  0  0  0  0  0  0
   11.1459   -0.5132    0.0000 C   0  0  0  0  0  0  0  0  0  0  0  0
   11.7970   -1.0198    0.0000 C   0  0  0  0  0  0  0  0  0  0  0  0
   12.5613   -0.7091    0.0000 O   0  0  0  0  0  0  0  0  0  0  0  0
   11.6839   -1.8370    0.0000 C   0  0  0  0  0  0  0  0  0  0  0  0
   10.9196   -2.1476    0.0000 C   0  0  0  0  0  0  0  0  0  0  0  0
   10.8064   -2.9648    0.0000 C   0  0  0  0  0  0  0  0  0  0  0  0
   10.0422   -3.2754    0.0000 C   0  0  0  0  0  0  0  0  0  0  0  0
    9.3910   -2.7688    0.0000 C   0  0  0  0  0  0  0  0  0  0  0  0
    9.5041   -1.9516    0.0000 C   0  0  0  0  0  0  0  0  0  0  0  0
    8.8530   -1.4450    0.0000 C   0  0  0  0  0  0  0  0  0  0  0  0
    8.9661   -0.6278    0.0000 C   0  0  0  0  0  0  0  0  0  0  0  0
    8.3150   -0.1213    0.0000 C   0  0  0  0  0  0  0  0  0  0  0  0
    7.4921   -0.1805    0.0000 C   0  0  0  0  0  0  0  0  0  0  0  0
    7.1815    0.5838    0.0000 O   0  0  0  0  0  0  0  0  0  0  0  0
    7.8124    1.1154    0.0000 C   0  0  0  0  0  0  0  0  0  0  0  0
    8.4281    0.6960    0.0000 C   0  0  0  0  0  0  0  0  0  0  0  0
    9.1924    1.0066    0.0000 C   0  0  0  0  0  0  0  0  0  0  0  0
    9.2677    1.8930    0.0000 C   0  0  0  0  0  0  0  0  0  0  0  0
    8.5671    2.3288    0.0000 C   0  0  0  0  0  0  0  0  0  0  0  0
    7.8395    1.9399    0.0000 C   0  0  0  0  0  0  0  0  0  0  0  0
    7.1389    2.3757    0.0000 N   0  0  0  0  0  0  0  0  0  0  0  0
    6.4113    1.9869    0.0000 O   0  0  0  0  0  0  0  0  0  0  0  0
    8.5942    3.1533    0.0000 C   0  0  0  0  0  0  0  0  0  0  0  0
    9.8436    0.5000    0.0000 C   0  0  0  0  0  0  0  0  0  0  0  0
    9.7304   -0.3172    0.0000 O   0  0  0  0  0  0  0  0  0  0  0  0
   10.6079    0.8106    0.0000 O   0  0  0  0  0  0  0  0  0  0  0  0
    8.5154    1.5163    0.0000 O   0  0  0  0  0  0  0  0  0  0  0  0
    8.6267   -3.0795    0.0000 C   0  0  0  0  0  0  0  0  0  0  0  0
   11.4576   -3.4714    0.0000 C   0  0  0  0  0  0  0  0  0  0  0  0
   12.7876    0.9253    0.0000 O   0  0  0  0  0  0  0  0  0  0  0  0
   13.5519    1.2359    0.0000 C   0  0  0  0  0  0  0  0  0  0  0  0
   13.6650    2.0531    0.0000 C   0  0  0  0  0  0  0  0  0  0  0  0
  1  2  1  0  0  0  0
  2  3  1  0  0  0  0
  3  4  1  0  0  0  0
  4  5  1  0  0  0  0
  5  6  1  0  0  0  0
  6  7  1  0  0  0  0
  7  8  1  0  0  0  0
  3  8  1  0  0  0  0
  7  9  1  0  0  0  0
  9 10  1  0  0  0  0
 10 11  1  0  0  0  0
 11 12  1  0  0  0  0
 12 13  1  0  0  0  0
  7 13  1  0  0  0  0
 12 14  1  0  0  0  0
 15 14  1  4  0  0  0
 15 16  2  0  0  0  0
 16 17  1  0  0  0  0
 17 18  1  0  0  0  0
 19 18  1  4  0  0  0
 19 20  2  0  0  0  0
 21 20  1  4  0  0  0
 21 22  2  0  0  0  0
 22 23  1  0  0  0  0
 23 24  1  0  0  0  0
 24 25  1  0  0  0  0
 25 26  1  0  0  0  0
 22 26  1  0  0  0  0
 26 27  1  0  0  0  0
 27 28  1  0  0  0  0
 28 29  2  0  0  0  0
 29 30  1  0  0  0  0
 25 30  1  0  0  0  0
 30 31  2  0  0  0  0
 31 32  1  4  0  0  0
 29 33  1  0  0  0  0
 27 34  1  0  0  0  0
 34 35  2  0  0  0  0
 34 36  1  0  0  0  0
 10 36  1  0  0  0  0
 26 37  1  0  0  0  0
 18 38  1  0  0  0  0
 16 39  1  0  0  0  0
  4 40  1  0  0  0  0
 41 42  1  0  0  0  0
 42 43  1  0  0  0  0
 43 44  1  0  0  0  0
 44 45  1  0  0  0  0
 45 46  1  0  0  0  0
 46 47  1  0  0  0  0
 47 48  1  0  0  0  0
 48 49  1  0  0  0  0
 49 50  1  0  0  0  0
 45 50  1  0  0  0  0
 49 51  1  0  0  0  0
 52 51  1  4  0  0  0
 52 53  2  0  0  0  0
 53 54  1  0  0  0  0
 54 55  1  0  0  0  0
 56 55  1  4  0  0  0
 56 57  2  0  0  0  0
 58 57  1  4  0  0  0
 58 59  2  0  0  0  0
 59 60  1  0  0  0  0
 60 61  1  0  0  0  0
 61 62  1  0  0  0  0
 62 63  1  0  0  0  0
 59 63  1  0  0  0  0
 63 64  1  0  0  0  0
 64 65  1  0  0  0  0
 65 66  2  0  0  0  0
 66 67  1  0  0  0  0
 62 67  1  0  0  0  0
 67 68  2  0  0  0  0
 68 69  1  4  0  0  0
 66 70  1  0  0  0  0
 64 71  1  0  0  0  0
 71 72  2  0  0  0  0
 71 73  1  0  0  0  0
 47 73  1  0  0  0  0
 63 74  1  0  0  0  0
 55 75  1  0  0  0  0
 53 76  1  0  0  0  0
 45 77  1  0  0  0  0
 77 78  1  0  0  0  0
 42 78  1  0  0  0  0
 78 79  1  0  0  0  0
M  END
>  <Name>
Milbemycin oxime

>  <CAS>
129496-10-2

>  <Formula>
C63H88N2O14

>  <MolWt>
1097.38 

>  <Bioactivity>
Milbemycin oxime is a veterinary drug from the group of milbemycins, used as a broad spectrum antiparasitic.


>  <Pathways>
Microbiology & Virology

>  <Target>
Antiparasitic

>  <Receptor>
Antiparasitic

>  <Reference>
1. Böhm C, et al. Vet Parasitol. 2014 Jan 31;199(3-4):272-7. 

$$$$
61618-27-7
  Mrv1561503291623562D          

 21 20  0  0  0  0            999 V2000
    1.0003   -0.4125    0.0000 C   0  0  0  0  0  0  0  0  0  0  0  0
    1.0003   -1.2375    0.0000 C   0  0  0  0  0  0  0  0  0  0  0  0
    0.2858   -1.6500    0.0000 C   0  0  0  0  0  0  0  0  0  0  0  0
   -0.4287   -1.2375    0.0000 C   0  0  0  0  0  0  0  0  0  0  0  0
   -0.4287   -0.4125    0.0000 C   0  0  0  0  0  0  0  0  0  0  0  0
    0.2858    0.0000    0.0000 C   0  0  0  0  0  0  0  0  0  0  0  0
    0.2858    0.8250    0.0000 C   0  0  0  0  0  0  0  0  0  0  0  0
   -0.4287    1.2375    0.0000 O   0  0  0  0  0  0  0  0  0  0  0  0
    1.0003    1.2375    0.0000 C   0  0  0  0  0  0  0  0  0  0  0  0
    1.0003    2.0625    0.0000 C   0  0  0  0  0  0  0  0  0  0  0  0
    1.7147    2.4750    0.0000 C   0  0  0  0  0  0  0  0  0  0  0  0
    2.4292    2.0625    0.0000 C   0  0  0  0  0  0  0  0  0  0  0  0
    2.4292    1.2375    0.0000 C   0  0  0  0  0  0  0  0  0  0  0  0
    1.7147    0.8250    0.0000 C   0  0  0  0  0  0  0  0  0  0  0  0
   -1.1432    0.0000    0.0000 N   0  0  0  0  0  0  0  0  0  0  0  0
   -1.1432   -1.6500    0.0000 C   0  0  0  0  0  0  0  0  0  0  0  0
   -1.8576   -1.2375    0.0000 C   0  0  0  0  0  0  0  0  0  0  0  0
   -2.5721   -1.6500    0.0000 O   0  5  0  0  0  0  0  0  0  0  0  0
   -1.8576   -0.4125    0.0000 O   0  0  0  0  0  0  0  0  0  0  0  0
   -3.2866   -2.0625    0.0000 Na  0  3  0  0  0  0  0  0  0  0  0  0
    4.7863    0.0000    0.0000 O   0  0  0  0  0  0  0  0  0  0  0  0
  1  2  2  0  0  0  0
  2  3  1  0  0  0  0
  3  4  2  0  0  0  0
  4  5  1  0  0  0  0
  5  6  2  0  0  0  0
  1  6  1  0  0  0  0
  6  7  1  0  0  0  0
  7  8  2  0  0  0  0
  7  9  1  0  0  0  0
  9 10  2  0  0  0  0
 10 11  1  0  0  0  0
 11 12  2  0  0  0  0
 12 13  1  0  0  0  0
 13 14  2  0  0  0  0
  9 14  1  0  0  0  0
  5 15  1  0  0  0  0
  4 16  1  0  0  0  0
 16 17  1  0  0  0  0
 17 18  1  0  0  0  0
 17 19  2  0  0  0  0
M  CHG  2  18  -1  20   1
M  END
>  <Name>
Amfenac Sodium Monohydrate

>  <CAS>
61618-27-7

>  <Formula>
C15H12NO3.H2O.Na

>  <MolWt>
295.27 

>  <Bioactivity>
Amfenac Sodium monohydrate is a non-steroidal analgesic anti-inflammatory drug with acetic acid moiety.

>  <Pathways>
Neuroscience

>  <Target>
COX inhibitor

>  <Receptor>
COX-1,COX-2

>  <Reference>
1. Gamache DA, et al. Inflammation, 2000, 24(4), 357-370.

$$$$
T0175
  Mrv1561503291623562D          

 17 15  0  0  0  0            999 V2000
    0.4125    0.0000    0.0000 H   0  3  0  0  0  0  0  0  0  0  0  0
    4.1986   -0.0825    0.0000 C   0  0  0  0  0  0  0  0  0  0  0  0
    4.9131   -0.4950    0.0000 C   0  0  0  0  0  0  0  0  0  0  0  0
    4.9131   -1.3200    0.0000 N   0  0  0  0  0  0  0  0  0  0  0  0
    4.1986   -1.7325    0.0000 C   0  0  0  0  0  0  0  0  0  0  0  0
    4.1986   -2.5575    0.0000 N   0  0  0  0  0  0  0  0  0  0  0  0
    3.4841   -1.3200    0.0000 C   0  0  0  0  0  0  0  0  0  0  0  0
    3.4841   -0.4950    0.0000 N   0  0  0  0  0  0  0  0  0  0  0  0
    2.7696   -1.7325    0.0000 Cl  0  0  0  0  0  0  0  0  0  0  0  0
    5.6275   -0.0825    0.0000 N   0  0  0  0  0  0  0  0  0  0  0  0
    4.1986    0.7425    0.0000 C   0  0  0  0  0  0  0  0  0  0  0  0
    4.9131    1.1550    0.0000 O   0  0  0  0  0  0  0  0  0  0  0  0
    3.4841    1.1550    0.0000 N   0  0  0  0  0  0  0  0  0  0  0  0
    3.4841    1.9800    0.0000 C   0  0  0  0  0  0  0  0  0  0  0  0
    2.7696    2.3925    0.0000 N   0  0  0  0  0  0  0  0  0  0  0  0
    4.1986    2.3925    0.0000 N   0  0  0  0  0  0  0  0  0  0  0  0
   -0.4125    0.0000    0.0000 Cl  0  5  0  0  0  0  0  0  0  0  0  0
  2  3  2  0  0  0  0
  3  4  1  0  0  0  0
  4  5  2  0  0  0  0
  5  6  1  0  0  0  0
  5  7  1  0  0  0  0
  7  8  2  0  0  0  0
  2  8  1  0  0  0  0
  7  9  1  0  0  0  0
  3 10  1  0  0  0  0
  2 11  1  0  0  0  0
 11 12  2  0  0  0  0
 11 13  1  0  0  0  0
 13 14  2  3  0  0  0
 14 15  1  0  0  0  0
 14 16  1  0  0  0  0
M  CHG  2   1   1  17  -1
M  END
>  <Name>
Amiloride HCl

>  <CAS>
2016-88-8

>  <Formula>
C6H9Cl2N7O

>  <MolWt>
266.09 

>  <Bioactivity>
A pyrazine compound inhibiting SODIUM reabsorption through SODIUM CHANNELS in renal EPITHELIAL CELLS. This inhibition creates a negative potential in the luminal membranes of principal cells, located in the distal convoluted tubule and collecting duct. Negative potential reduces secretion of potassium and hydrogen ions.

>  <Pathways>
Angiogenesis

>  <Target>
Plasminogen inhibitor

>  <Receptor>
Plasminogen activator; Sodium/hydrogen exchanger

>  <Reference>
1. Kelly O, et al. Am J Physiol Renal Physiol. 2003 Dec;285(6):F1279-90. 

$$$$
53902-12-8
  Mrv1561503291623562D          

 24 25  0  0  0  0            999 V2000
   -1.4289   -2.4750    0.0000 C   0  0  0  0  0  0  0  0  0  0  0  0
   -0.7145   -2.8875    0.0000 O   0  0  0  0  0  0  0  0  0  0  0  0
   -0.7145   -3.7125    0.0000 C   0  0  0  0  0  0  0  0  0  0  0  0
   -0.0000   -4.1250    0.0000 C   0  0  0  0  0  0  0  0  0  0  0  0
   -0.0000   -4.9500    0.0000 C   0  0  0  0  0  0  0  0  0  0  0  0
   -0.7145   -5.3625    0.0000 C   0  0  0  0  0  0  0  0  0  0  0  0
   -0.7145   -6.1875    0.0000 C   0  0  0  0  0  0  0  0  0  0  0  0
   -1.4289   -6.6000    0.0000 C   0  0  0  0  0  0  0  0  0  0  0  0
   -1.4289   -7.4250    0.0000 C   0  0  0  0  0  0  0  0  0  0  0  0
   -0.7145   -7.8375    0.0000 O   0  0  0  0  0  0  0  0  0  0  0  0
   -2.1434   -7.8375    0.0000 N   0  0  0  0  0  0  0  0  0  0  0  0
   -2.1434   -8.6625    0.0000 C   0  0  0  0  0  0  0  0  0  0  0  0
   -1.4289   -9.0750    0.0000 C   0  0  0  0  0  0  0  0  0  0  0  0
   -1.4289   -9.9000    0.0000 C   0  0  0  0  0  0  0  0  0  0  0  0
   -2.1434  -10.3125    0.0000 C   0  0  0  0  0  0  0  0  0  0  0  0
   -2.8579   -9.9000    0.0000 C   0  0  0  0  0  0  0  0  0  0  0  0
   -2.8579   -9.0750    0.0000 C   0  0  0  0  0  0  0  0  0  0  0  0
   -3.5724   -8.6625    0.0000 C   0  0  0  0  0  0  0  0  0  0  0  0
   -3.5724   -7.8375    0.0000 O   0  0  0  0  0  0  0  0  0  0  0  0
   -4.2868   -9.0750    0.0000 O   0  0  0  0  0  0  0  0  0  0  0  0
   -1.4289   -4.9500    0.0000 C   0  0  0  0  0  0  0  0  0  0  0  0
   -1.4289   -4.1250    0.0000 C   0  0  0  0  0  0  0  0  0  0  0  0
   -2.1434   -3.7125    0.0000 O   0  0  0  0  0  0  0  0  0  0  0  0
   -2.1434   -2.8875    0.0000 C   0  0  0  0  0  0  0  0  0  0  0  0
  1  2  1  0  0  0  0
  2  3  1  0  0  0  0
  3  4  4  0  0  0  0
  4  5  4  0  0  0  0
  5  6  4  0  0  0  0
  6  7  1  0  0  0  0
  7  8  2  0  0  0  0
  8  9  1  0  0  0  0
  9 10  2  0  0  0  0
  9 11  1  0  0  0  0
 11 12  1  0  0  0  0
 12 13  4  0  0  0  0
 13 14  4  0  0  0  0
 14 15  4  0  0  0  0
 15 16  4  0  0  0  0
 16 17  4  0  0  0  0
 12 17  4  0  0  0  0
 17 18  1  0  0  0  0
 18 19  1  0  0  0  0
 18 20  2  0  0  0  0
  6 21  4  0  0  0  0
 21 22  4  0  0  0  0
  3 22  4  0  0  0  0
 22 23  1  0  0  0  0
 23 24  1  0  0  0  0
M  END
>  <Name>
Tranilast

>  <CAS>
53902-12-8

>  <Formula>
C18H17NO5

>  <MolWt>
327.33 

>  <Bioactivity>
Tranilast is an antiallergic drug by inhibiting lipid mediator and cytokine release from inflammatory cells, used for the treatment of allergic disorders such as asthma, allergic rhinitis and atopic dermatitis.

>  <Pathways>
Others

>  <Target>
Others

>  <Receptor>
Others

>  <Reference>
1. Suzawa H, et al. Jpn J Pharmacol, 1992, 60(2), 91-96.

$$$$
T2537
  Mrv1561503291623562D          

 33 31  0  0  1  0            999 V2000
   -2.4530   -0.7838    0.0000 C   0  0  0  0  0  0  0  0  0  0  0  0
   -2.4530    0.0412    0.0000 N   0  0  0  0  0  0  0  0  0  0  0  0
   -3.1675    0.4537    0.0000 S   0  0  0  0  0  0  0  0  0  0  0  0
   -3.5800   -0.2607    0.0000 O   0  0  0  0  0  0  0  0  0  0  0  0
   -2.7550    1.1682    0.0000 O   0  0  0  0  0  0  0  0  0  0  0  0
   -3.8820    0.8662    0.0000 C   0  0  0  0  0  0  0  0  0  0  0  0
   -3.8820    1.6912    0.0000 C   0  0  0  0  0  0  0  0  0  0  0  0
   -4.5964    2.1037    0.0000 C   0  0  0  0  0  0  0  0  0  0  0  0
   -4.5964    2.9287    0.0000 C   0  0  0  0  0  0  0  0  0  0  0  0
   -1.7385   -1.1963    0.0000 C   0  0  0  0  0  0  0  0  0  0  0  0
   -1.0241   -0.7837    0.0000 C   0  0  0  0  0  0  0  0  0  0  0  0
   -1.0241    0.0412    0.0000 C   0  0  0  0  0  0  0  0  0  0  0  0
   -0.3096    0.4538    0.0000 C   0  0  0  0  0  0  0  0  0  0  0  0
    0.4049    0.0413    0.0000 C   0  0  0  0  0  0  0  0  0  0  0  0
    1.1193    0.4538    0.0000 O   0  0  0  0  0  0  0  0  0  0  0  0
    1.8338    0.0413    0.0000 C   0  0  0  0  0  0  0  0  0  0  0  0
    2.5483    0.4538    0.0000 C   0  0  0  0  0  0  0  0  0  0  0  0
    3.2628    0.0413    0.0000 C   0  0  0  0  0  0  0  0  0  0  0  0
    3.9772    0.4538    0.0000 C   0  0  0  0  0  0  0  0  0  0  0  0
    4.6917    0.0413    0.0000 C   0  0  0  0  0  0  0  0  0  0  0  0
    5.4062    0.4538    0.0000 C   0  0  0  0  0  0  0  0  0  0  0  0
    6.1206    0.0413    0.0000 C   0  0  0  0  0  0  0  0  0  0  0  0
    6.1206   -0.7837    0.0000 N   0  0  0  0  0  0  0  0  0  0  0  0
    5.4062   -1.1962    0.0000 C   0  0  0  0  0  0  0  0  0  0  0  0
    4.6917   -0.7837    0.0000 C   0  0  0  0  0  0  0  0  0  0  0  0
    0.4049   -0.7837    0.0000 C   0  0  0  0  0  0  0  0  0  0  0  0
   -0.3096   -1.1962    0.0000 C   0  0  0  0  0  0  0  0  0  0  0  0
   -3.1675   -1.1963    0.0000 C   0  0  0  0  0  0  0  0  0  0  0  0
   -3.1675   -2.0212    0.0000 O   0  0  0  0  0  0  0  0  0  0  0  0
   -3.8820   -0.7838    0.0000 O   0  0  0  0  0  0  0  0  0  0  0  0
    9.3028    0.0000    0.0000 H   0  3  0  0  0  0  0  0  0  0  0  0
    8.4778    0.0000    0.0000 Cl  0  5  0  0  0  0  0  0  0  0  0  0
    0.0000   -3.6712    0.0000 O   0  0  0  0  0  0  0  0  0  0  0  0
  1  2  1  0  0  0  0
  2  3  1  0  0  0  0
  3  4  2  0  0  0  0
  3  5  2  0  0  0  0
  3  6  1  0  0  0  0
  6  7  1  0  0  0  0
  7  8  1  0  0  0  0
  8  9  1  0  0  0  0
  1 10  1  0  0  0  0
 10 11  1  0  0  0  0
 11 12  2  0  0  0  0
 12 13  1  0  0  0  0
 13 14  2  0  0  0  0
 14 15  1  0  0  0  0
 15 16  1  0  0  0  0
 16 17  1  0  0  0  0
 17 18  1  0  0  0  0
 18 19  1  0  0  0  0
 19 20  1  0  0  0  0
 20 21  1  0  0  0  0
 21 22  1  0  0  0  0
 22 23  1  0  0  0  0
 23 24  1  0  0  0  0
 24 25  1  0  0  0  0
 20 25  1  0  0  0  0
 14 26  1  0  0  0  0
 26 27  2  0  0  0  0
 11 27  1  0  0  0  0
  1 28  1  0  0  0  0
 28 29  1  0  0  0  0
 28 30  2  0  0  0  0
M  CHG  2  31   1  32  -1
M  END
>  <Name>
Tirofiban HCl monohydrate

>  <CAS>
150915-40-5

>  <Formula>
C22H39ClN2O6S

>  <MolWt>
495.07 

>  <Bioactivity>
Tirofiban hydrochloride monohydrate is a potent non-peptide, glycoprotein IIb/IIIa (integrins alphaIIbbetaIII) antagonist

>  <Pathways>
Membrane Transporter/Ion Channel

>  <Target>
Integrin antagonist

>  <Receptor>
integrin IIb/IIIa

>  <Reference>
1. Winter JP, Juergens CP. Cardiovasc Hematol Disord Drug Targets. 2008 Jun;8(2):138-46.

$$$$
90-22-2
  Mrv1561503291623562D          

 23 22  0  0  0  0            999 V2000
    1.0075    1.6975    0.0000 C   0  0  0  0  0  0  0  0  0  0  0  0
    1.4200    2.4119    0.0000 C   0  0  0  0  0  0  0  0  0  0  0  0
    2.2450    2.4119    0.0000 C   0  0  0  0  0  0  0  0  0  0  0  0
    2.6575    1.6975    0.0000 C   0  0  0  0  0  0  0  0  0  0  0  0
    2.2450    0.9830    0.0000 C   0  0  0  0  0  0  0  0  0  0  0  0
    1.4200    0.9830    0.0000 C   0  0  0  0  0  0  0  0  0  0  0  0
    1.0075    0.2685    0.0000 C   0  0  0  0  0  0  0  0  0  0  0  0
    0.1825    0.2685    0.0000 C   0  0  0  0  0  0  0  0  0  0  0  0
   -0.2300   -0.4460    0.0000 O   0  0  0  0  0  0  0  0  0  0  0  0
   -1.0550   -0.4460    0.0000 C   0  0  0  0  0  0  0  0  0  0  0  0
   -1.4675   -1.1604    0.0000 C   0  0  0  0  0  0  0  0  0  0  0  0
   -2.2925   -1.1604    0.0000 N   0  3  0  0  0  0  0  0  0  0  0  0
   -3.1175   -1.1604    0.0000 C   0  0  0  0  0  0  0  0  0  0  0  0
   -3.5300   -1.8749    0.0000 C   0  0  0  0  0  0  0  0  0  0  0  0
   -2.2925   -0.3354    0.0000 C   0  0  0  0  0  0  0  0  0  0  0  0
   -3.0070    0.0771    0.0000 C   0  0  0  0  0  0  0  0  0  0  0  0
   -2.2925   -1.9854    0.0000 C   0  0  0  0  0  0  0  0  0  0  0  0
   -0.2300    0.9830    0.0000 O   0  0  0  0  0  0  0  0  0  0  0  0
    1.4200   -0.4460    0.0000 C   0  0  0  0  0  0  0  0  0  0  0  0
    2.2450   -0.4460    0.0000 C   0  0  0  0  0  0  0  0  0  0  0  0
    2.6575   -1.1604    0.0000 C   0  0  0  0  0  0  0  0  0  0  0  0
    1.0075   -1.1604    0.0000 C   0  0  0  0  0  0  0  0  0  0  0  0
    5.0146    0.0000    0.0000 Br  0  5  0  0  0  0  0  0  0  0  0  0
  1  2  2  0  0  0  0
  2  3  1  0  0  0  0
  3  4  2  0  0  0  0
  4  5  1  0  0  0  0
  5  6  2  0  0  0  0
  1  6  1  0  0  0  0
  6  7  1  0  0  0  0
  7  8  1  0  0  0  0
  8  9  1  0  0  0  0
  9 10  1  0  0  0  0
 10 11  1  0  0  0  0
 11 12  1  0  0  0  0
 12 13  1  0  0  0  0
 13 14  1  0  0  0  0
 12 15  1  0  0  0  0
 15 16  1  0  0  0  0
 12 17  1  0  0  0  0
  8 18  2  0  0  0  0
  7 19  1  0  0  0  0
 19 20  1  0  0  0  0
 20 21  1  0  0  0  0
 19 22  1  0  0  0  0
M  CHG  2  12   1  23  -1
M  END
>  <Name>
Valethamate bromide

>  <CAS>
90-22-2

>  <Formula>
C19H32BrNO2

>  <MolWt>
386.37 

>  <Bioactivity>
anticholinergic agent

>  <Pathways>
Others

>  <Target>
Others

>  <Receptor>
Others

>  <Reference>
1. Köstü B, et al. J Obstet Gynaecol. 2015 Aug 11:1-4.

$$$$
33818-15-4
  Mrv1561503291623562D          

 32 32  0  0  1  0            999 V2000
    0.7145   -1.2375    0.0000 C   0  0  0  0  0  0  0  0  0  0  0  0
    1.3819   -1.7224    0.0000 O   0  0  0  0  0  0  0  0  0  0  0  0
    1.1270   -2.5070    0.0000 C   0  0  0  0  0  0  0  0  0  0  0  0
    0.3020   -2.5070    0.0000 C   0  0  0  0  0  0  0  0  0  0  0  0
   -0.1830   -3.1745    0.0000 O   0  0  0  0  0  0  0  0  0  0  0  0
    0.0470   -1.7224    0.0000 C   0  0  0  0  0  0  0  0  0  0  0  0
   -0.7376   -1.4675    0.0000 O   0  0  0  0  0  0  0  0  0  0  0  0
    1.6119   -3.1745    0.0000 C   0  0  0  0  0  0  0  0  0  0  0  0
    1.2763   -3.9282    0.0000 O   0  0  0  0  0  0  0  0  0  0  0  0
    1.7613   -4.5956    0.0000 P   0  0  0  0  0  0  0  0  0  0  0  0
    2.2462   -5.2630    0.0000 O   0  0  0  0  0  0  0  0  0  0  0  0
    1.9106   -6.0167    0.0000 P   0  0  0  0  0  0  0  0  0  0  0  0
    1.5751   -6.7704    0.0000 O   0  0  0  0  0  0  0  0  0  0  0  0
    2.0600   -7.4378    0.0000 C   0  0  0  0  0  0  0  0  0  0  0  0
    1.7244   -8.1915    0.0000 C   0  0  0  0  0  0  0  0  0  0  0  0
    2.2094   -8.8589    0.0000 N   0  3  0  0  0  0  0  0  0  0  0  0
    2.6943   -9.5264    0.0000 C   0  0  0  0  0  0  0  0  0  0  0  0
    2.8768   -8.3740    0.0000 C   0  0  0  0  0  0  0  0  0  0  0  0
    1.5419   -9.3439    0.0000 C   0  0  0  0  0  0  0  0  0  0  0  0
    2.6643   -6.3523    0.0000 O   0  5  0  0  0  0  0  0  0  0  0  0
    1.1569   -5.6812    0.0000 O   0  0  0  0  0  0  0  0  0  0  0  0
    2.4287   -4.1107    0.0000 O   0  5  0  0  0  0  0  0  0  0  0  0
    1.0938   -5.0805    0.0000 O   0  0  0  0  0  0  0  0  0  0  0  0
    0.7145   -0.4125    0.0000 N   0  0  0  0  0  0  0  0  0  0  0  0
   -0.0000   -0.0000    0.0000 C   0  0  0  0  0  0  0  0  0  0  0  0
   -0.7145   -0.4125    0.0000 O   0  0  0  0  0  0  0  0  0  0  0  0
   -0.0000    0.8250    0.0000 N   0  0  0  0  0  0  0  0  0  0  0  0
    0.7145    1.2375    0.0000 C   0  0  0  0  0  0  0  0  0  0  0  0
    0.7145    2.0625    0.0000 N   0  0  0  0  0  0  0  0  0  0  0  0
    1.4289    0.8250    0.0000 C   0  0  0  0  0  0  0  0  0  0  0  0
    1.4289   -0.0000    0.0000 C   0  0  0  0  0  0  0  0  0  0  0  0
    3.4180   -6.6878    0.0000 Na  0  3  0  0  0  0  0  0  0  0  0  0
  1  2  1  0  0  0  0
  2  3  1  0  0  0  0
  3  4  1  0  0  0  0
  4  5  1  0  0  0  0
  4  6  1  0  0  0  0
  1  6  1  0  0  0  0
  6  7  1  0  0  0  0
  3  8  1  0  0  0  0
  8  9  1  0  0  0  0
  9 10  1  0  0  0  0
 10 11  1  0  0  0  0
 11 12  1  0  0  0  0
 12 13  1  0  0  0  0
 13 14  1  0  0  0  0
 14 15  1  0  0  0  0
 15 16  1  0  0  0  0
 16 17  1  0  0  0  0
 16 18  1  0  0  0  0
 16 19  1  0  0  0  0
 12 20  1  0  0  0  0
 12 21  2  0  0  0  0
 10 22  1  0  0  0  0
 10 23  2  0  0  0  0
  1 24  1  0  0  0  0
 24 25  1  0  0  0  0
 25 26  2  0  0  0  0
 25 27  1  0  0  0  0
 27 28  2  0  0  0  0
 28 29  1  0  0  0  0
 28 30  1  0  0  0  0
 30 31  2  0  0  0  0
 24 31  1  0  0  0  0
M  CHG  4  16   1  20  -1  22  -1  32   1
M  END
>  <Name>
Citicoline sodium

>  <CAS>
33818-15-4

>  <Formula>
C14H25N4NaO11P2

>  <MolWt>
510.31 

>  <Bioactivity>
Donor of choline in biosynthesis of choline-containing phosphoglycerides.

>  <Pathways>
Neuroscience

>  <Target>
Phosphatidylcholine

>  <Receptor>
phosphatidylcholine

>  <Reference>
1. Conant R, Schauss AG. Altern Med Rev. 2004 Mar;9(1):17-31.

$$$$
304-20-1
  Mrv1561503291623562D          

 14 13  0  0  0  0            999 V2000
    0.4125    0.0000    0.0000 H   0  3  0  0  0  0  0  0  0  0  0  0
    3.0127   -0.5156    0.0000 C   0  0  0  0  0  0  0  0  0  0  0  0
    2.2982   -0.1031    0.0000 C   0  0  0  0  0  0  0  0  0  0  0  0
    2.2982    0.7219    0.0000 C   0  0  0  0  0  0  0  0  0  0  0  0
    3.0127    1.1344    0.0000 C   0  0  0  0  0  0  0  0  0  0  0  0
    3.7272    0.7219    0.0000 C   0  0  0  0  0  0  0  0  0  0  0  0
    4.4416    1.1344    0.0000 C   0  0  0  0  0  0  0  0  0  0  0  0
    5.1561    0.7219    0.0000 N   0  0  0  0  0  0  0  0  0  0  0  0
    5.1561   -0.1031    0.0000 N   0  0  0  0  0  0  0  0  0  0  0  0
    4.4416   -0.5156    0.0000 C   0  0  0  0  0  0  0  0  0  0  0  0
    3.7272   -0.1031    0.0000 C   0  0  0  0  0  0  0  0  0  0  0  0
    4.4416   -1.3406    0.0000 N   0  0  0  0  0  0  0  0  0  0  0  0
    5.1561   -1.7531    0.0000 N   0  0  0  0  0  0  0  0  0  0  0  0
   -0.4125    0.0000    0.0000 Cl  0  5  0  0  0  0  0  0  0  0  0  0
  2  3  2  0  0  0  0
  3  4  1  0  0  0  0
  4  5  2  0  0  0  0
  5  6  1  0  0  0  0
  6  7  2  0  0  0  0
  7  8  1  0  0  0  0
  8  9  2  0  0  0  0
  9 10  1  0  0  0  0
 10 11  2  0  0  0  0
  2 11  1  0  0  0  0
  6 11  1  0  0  0  0
 10 12  1  0  0  0  0
 12 13  1  0  0  0  0
M  CHG  2   1   1  14  -1
M  END
>  <Name>
Hydralazine HCl

>  <CAS>
304-20-1

>  <Formula>
C8H9ClN4

>  <MolWt>
196.64 

>  <Bioactivity>
Hydralazine HCl is a hydrochloride salt of hydralazine (Apresoline) that is a direct-acting smooth muscle relaxant.

>  <Pathways>
Others

>  <Target>
Others

>  <Receptor>
AO;P4H

>  <Reference>
1. Claud P, et al. Drug Metab Dispos. 2001 May;29(5):735-41.

$$$$
58-18-4
  Mrv1561503291623562D          

 22 25  0  0  1  0            999 V2000
    1.5596   -2.8327    0.0000 C   0  0  1  0  0  0  0  0  0  0  0  0
    2.0914   -3.4634    0.0000 C   0  0  1  0  0  0  0  0  0  0  0  0
    2.9035   -3.3182    0.0000 C   0  0  2  0  0  0  0  0  0  0  0  0
    3.1838   -2.5422    0.0000 C   0  0  0  0  0  0  0  0  0  0  0  0
    3.9960   -2.3970    0.0000 C   0  0  0  0  0  0  0  0  0  0  0  0
    4.5278   -3.0277    0.0000 C   0  0  0  0  0  0  0  0  0  0  0  0
    5.3399   -2.8825    0.0000 O   0  0  0  0  0  0  0  0  0  0  0  0
    4.2475   -3.8037    0.0000 C   0  0  0  0  0  0  0  0  0  0  0  0
    3.4354   -3.9489    0.0000 C   0  0  0  0  0  0  0  0  0  0  0  0
    2.6520   -1.9115    0.0000 C   0  0  0  0  0  0  0  0  0  0  0  0
    1.8399   -2.0567    0.0000 C   0  0  0  0  0  0  0  0  0  0  0  0
    2.6232   -4.0941    0.0000 C   0  0  0  0  0  0  0  0  0  0  0  0
    1.8111   -4.2393    0.0000 C   0  0  0  0  0  0  0  0  0  0  0  0
    0.9990   -4.3845    0.0000 C   0  0  0  0  0  0  0  0  0  0  0  0
    0.4672   -3.7538    0.0000 C   0  0  1  0  0  0  0  0  0  0  0  0
    0.7475   -2.9779    0.0000 C   0  0  1  0  0  0  0  0  0  0  0  0
    0.0962   -2.4715    0.0000 C   0  0  0  0  0  0  0  0  0  0  0  0
   -0.5867   -2.9345    0.0000 C   0  0  0  0  0  0  0  0  0  0  0  0
   -0.3574   -3.7270    0.0000 C   0  0  1  0  0  0  0  0  0  0  0  0
   -1.1183   -4.0459    0.0000 C   0  0  0  0  0  0  0  0  0  0  0  0
   -0.4788   -4.5430    0.0000 O   0  0  0  0  0  0  0  0  0  0  0  0
    0.1073   -4.4962    0.0000 C   0  0  0  0  0  0  0  0  0  0  0  0
  1  2  1  0  0  0  0
  2  3  1  0  0  0  0
  3  4  1  0  0  0  0
  4  5  2  0  0  0  0
  5  6  1  0  0  0  0
  6  7  2  0  0  0  0
  6  8  1  0  0  0  0
  8  9  1  0  0  0  0
  3  9  1  0  0  0  0
  4 10  1  0  0  0  0
 10 11  1  0  0  0  0
  1 11  1  6  0  0  0
  3 12  1  1  0  0  0
  2 13  1  1  0  0  0
 13 14  1  0  0  0  0
 14 15  1  0  0  0  0
 15 16  1  0  0  0  0
  1 16  1  0  0  0  0
 16 17  1  1  0  0  0
 17 18  1  0  0  0  0
 18 19  1  0  0  0  0
 15 19  1  0  0  0  0
 19 20  1  6  0  0  0
 19 21  1  1  0  0  0
 15 22  1  1  0  0  0
M  END
>  <Name>
17-Methyltestosterone

>  <CAS>
58-18-4

>  <Formula>
C20H30O2

>  <MolWt>
302.45 

>  <Bioactivity>
17?-Methyltestosterone has similar binding affinity to AR and similar androgenic and anabolic activities as testosterone.

>  <Pathways>
Endocrinology/ Hormones

>  <Target>
Androgen Receptor agonist

>  <Receptor>
Androgen Receptor

>  <Reference>
1. Gao J, et al. Environ Toxicol Pharmacol. 2014 May;37(3):1157-68. 

$$$$
T2401
  Mrv1561503291623562D          

 34 36  0  0  1  0            999 V2000
    1.9719    0.7755    0.0000 C   0  0  1  0  0  0  0  0  0  0  0  0
    1.2575    0.3630    0.0000 C   0  0  0  0  0  0  0  0  0  0  0  0
    1.2575   -0.4620    0.0000 N   0  0  0  0  0  0  0  0  0  0  0  0
    1.9719   -0.8745    0.0000 C   0  0  0  0  0  0  0  0  0  0  0  0
    2.6864   -0.4620    0.0000 C   0  0  0  0  0  0  0  0  0  0  0  0
    2.6864    0.3630    0.0000 C   0  0  0  0  0  0  0  0  0  0  0  0
    0.5430   -0.8745    0.0000 C   0  0  0  0  0  0  0  0  0  0  0  0
    0.5430   -1.6995    0.0000 C   0  0  0  0  0  0  0  0  0  0  0  0
   -0.1715   -2.1120    0.0000 C   0  0  0  0  0  0  0  0  0  0  0  0
   -0.1715   -2.9370    0.0000 O   0  0  0  0  0  0  0  0  0  0  0  0
   -0.8859   -1.6995    0.0000 N   0  0  0  0  0  0  0  0  0  0  0  0
   -0.8859   -0.8745    0.0000 C   0  0  0  0  0  0  0  0  0  0  0  0
   -1.6004   -0.4620    0.0000 O   0  0  0  0  0  0  0  0  0  0  0  0
   -0.1715   -0.4620    0.0000 N   0  0  0  0  0  0  0  0  0  0  0  0
   -0.1715    0.3630    0.0000 C   0  0  0  0  0  0  0  0  0  0  0  0
   -0.8859    0.7755    0.0000 C   0  0  0  0  0  0  0  0  0  0  0  0
   -1.6004    0.3630    0.0000 C   0  0  0  0  0  0  0  0  0  0  0  0
   -2.3149    0.7755    0.0000 C   0  0  0  0  0  0  0  0  0  0  0  0
   -2.3149    1.6005    0.0000 C   0  0  0  0  0  0  0  0  0  0  0  0
   -1.6004    2.0130    0.0000 C   0  0  0  0  0  0  0  0  0  0  0  0
   -0.8859    1.6005    0.0000 C   0  0  0  0  0  0  0  0  0  0  0  0
   -0.1715    2.0130    0.0000 C   0  0  0  0  0  0  0  0  0  0  0  0
    0.5430    2.4255    0.0000 N   0  0  0  0  0  0  0  0  0  0  0  0
   -1.6004   -2.1120    0.0000 C   0  0  0  0  0  0  0  0  0  0  0  0
    1.9719    1.6005    0.0000 N   0  0  0  0  0  0  0  0  0  0  0  0
    6.0011   -0.2292    0.0000 C   0  0  0  0  0  0  0  0  0  0  0  0
    6.0011   -1.0542    0.0000 C   0  0  0  0  0  0  0  0  0  0  0  0
    5.2866   -1.4667    0.0000 C   0  0  0  0  0  0  0  0  0  0  0  0
    4.5721   -1.0542    0.0000 C   0  0  0  0  0  0  0  0  0  0  0  0
    4.5721   -0.2292    0.0000 C   0  0  0  0  0  0  0  0  0  0  0  0
    5.2866    0.1833    0.0000 C   0  0  0  0  0  0  0  0  0  0  0  0
    5.2866    1.0083    0.0000 C   0  0  0  0  0  0  0  0  0  0  0  0
    4.5721    1.4208    0.0000 O   0  0  0  0  0  0  0  0  0  0  0  0
    6.0011    1.4208    0.0000 O   0  0  0  0  0  0  0  0  0  0  0  0
  1  2  1  0  0  0  0
  2  3  1  0  0  0  0
  3  4  1  0  0  0  0
  4  5  1  0  0  0  0
  5  6  1  0  0  0  0
  1  6  1  0  0  0  0
  3  7  1  0  0  0  0
  7  8  2  0  0  0  0
  8  9  1  0  0  0  0
  9 10  2  0  0  0  0
  9 11  1  0  0  0  0
 11 12  1  0  0  0  0
 12 13  2  0  0  0  0
 12 14  1  0  0  0  0
  7 14  1  0  0  0  0
 14 15  1  0  0  0  0
 15 16  1  0  0  0  0
 16 17  2  0  0  0  0
 17 18  1  0  0  0  0
 18 19  2  0  0  0  0
 19 20  1  0  0  0  0
 20 21  2  0  0  0  0
 16 21  1  0  0  0  0
 21 22  1  0  0  0  0
 22 23  3  0  0  0  0
 11 24  1  0  0  0  0
  1 25  1  6  0  0  0
 26 27  2  0  0  0  0
 27 28  1  0  0  0  0
 28 29  2  0  0  0  0
 29 30  1  0  0  0  0
 30 31  2  0  0  0  0
 26 31  1  0  0  0  0
 31 32  1  0  0  0  0
 32 33  1  0  0  0  0
 32 34  2  0  0  0  0
M  END
>  <Name>
Alogliptin Benzoate

>  <CAS>
850649-62-6

>  <Formula>
C25H27N5O4

>  <MolWt>
461.51 

>  <Bioactivity>
Alogliptin is a potent, selective inhibitor of DPP-4 with IC50 of <10 nM, exhibits greater than 10,000-fold selectivity over DPP-8 and DPP-9.

>  <Pathways>
Proteases/Proteasome

>  <Target>
DPP-4 inhibitor

>  <Receptor>
DPP-4

>  <Reference>
1. Feng J, et al. J Med Chem, 2007, 50(10), 2297-2300.

$$$$
T2551
  Mrv1561503291623562D          

 28 30  0  0  0  0            999 V2000
    1.4289   -4.1250    0.0000 C   0  0  0  0  0  0  0  0  0  0  0  0
    1.4289   -4.9500    0.0000 C   0  0  0  0  0  0  0  0  0  0  0  0
    0.7145   -5.3625    0.0000 C   0  0  0  0  0  0  0  0  0  0  0  0
   -0.0000   -4.9500    0.0000 C   0  0  0  0  0  0  0  0  0  0  0  0
   -0.0000   -4.1250    0.0000 C   0  0  0  0  0  0  0  0  0  0  0  0
    0.7145   -3.7125    0.0000 C   0  0  0  0  0  0  0  0  0  0  0  0
    0.7145   -2.8875    0.0000 C   0  0  0  0  0  0  0  0  0  0  0  0
    0.7145   -2.0625    0.0000 N   0  0  0  0  0  0  0  0  0  0  0  0
   -0.7145   -5.3625    0.0000 C   0  0  0  0  0  0  0  0  0  0  0  0
    0.7145   -6.1875    0.0000 O   0  0  0  0  0  0  0  0  0  0  0  0
    1.4289   -6.6000    0.0000 C   0  0  0  0  0  0  0  0  0  0  0  0
    2.1434   -6.1875    0.0000 N   0  0  0  0  0  0  0  0  0  0  0  0
    2.8579   -6.6000    0.0000 C   0  0  0  0  0  0  0  0  0  0  0  0
    2.8579   -7.4250    0.0000 N   0  0  0  0  0  0  0  0  0  0  0  0
    2.1434   -7.8375    0.0000 C   0  0  0  0  0  0  0  0  0  0  0  0
    1.4289   -7.4250    0.0000 C   0  0  0  0  0  0  0  0  0  0  0  0
    0.7145   -7.8375    0.0000 Br  0  0  0  0  0  0  0  0  0  0  0  0
    2.1434   -8.6625    0.0000 N   0  0  0  0  0  0  0  0  0  0  0  0
    3.5724   -6.1875    0.0000 N   0  0  0  0  0  0  0  0  0  0  0  0
    4.2868   -6.6000    0.0000 C   0  0  0  0  0  0  0  0  0  0  0  0
    5.0013   -6.1875    0.0000 C   0  0  0  0  0  0  0  0  0  0  0  0
    5.7158   -6.6000    0.0000 C   0  0  0  0  0  0  0  0  0  0  0  0
    5.7158   -7.4250    0.0000 C   0  0  0  0  0  0  0  0  0  0  0  0
    6.4302   -7.8375    0.0000 C   0  0  0  0  0  0  0  0  0  0  0  0
    7.1447   -8.2500    0.0000 N   0  0  0  0  0  0  0  0  0  0  0  0
    5.0013   -7.8375    0.0000 C   0  0  0  0  0  0  0  0  0  0  0  0
    4.2868   -7.4250    0.0000 C   0  0  0  0  0  0  0  0  0  0  0  0
    2.1434   -5.3625    0.0000 C   0  0  0  0  0  0  0  0  0  0  0  0
  1  2  2  0  0  0  0
  2  3  1  0  0  0  0
  3  4  2  0  0  0  0
  4  5  1  0  0  0  0
  5  6  2  0  0  0  0
  1  6  1  0  0  0  0
  6  7  1  0  0  0  0
  7  8  3  0  0  0  0
  4  9  1  0  0  0  0
  3 10  1  0  0  0  0
 10 11  1  0  0  0  0
 11 12  2  0  0  0  0
 12 13  1  0  0  0  0
 13 14  2  0  0  0  0
 14 15  1  0  0  0  0
 15 16  2  0  0  0  0
 11 16  1  0  0  0  0
 16 17  1  0  0  0  0
 15 18  1  0  0  0  0
 13 19  1  0  0  0  0
 19 20  1  0  0  0  0
 20 21  2  0  0  0  0
 21 22  1  0  0  0  0
 22 23  2  0  0  0  0
 23 24  1  0  0  0  0
 24 25  3  0  0  0  0
 23 26  1  0  0  0  0
 26 27  2  0  0  0  0
 20 27  1  0  0  0  0
  2 28  1  0  0  0  0
M  END
>  <Name>
Etravirine (TMC125)

>  <CAS>
269055-15-4

>  <Formula>
C20H15BrN6O

>  <MolWt>
435.28 

>  <Bioactivity>
Etravirine (TMC125) is a non-nucleoside reverse transcriptase inhibitor (NNRTI) used for the treatment of HIV.

>  <Pathways>
DNA Damage/DNA Repair;Microbiology & Virology

>  <Target>
Reverse Transcriptase inhibitor

>  <Receptor>
Reverse Transcriptase

>  <Reference>
1. Das K, et al. J Med Chem, 2004, 47(10), 2550-2560.

$$$$
360-70-3
  Mrv1561503291623562D          

 31 34  0  0  1  0            999 V2000
   -1.8946   -5.3697    0.0000 C   0  0  1  0  0  0  0  0  0  0  0  0
   -2.7016   -5.1982    0.0000 C   0  0  1  0  0  0  0  0  0  0  0  0
   -2.9565   -4.4136    0.0000 C   0  0  1  0  0  0  0  0  0  0  0  0
   -3.7635   -4.2420    0.0000 C   0  0  2  0  0  0  0  0  0  0  0  0
   -4.3155   -4.8551    0.0000 C   0  0  0  0  0  0  0  0  0  0  0  0
   -5.1225   -4.6836    0.0000 C   0  0  0  0  0  0  0  0  0  0  0  0
   -5.3774   -3.8990    0.0000 C   0  0  0  0  0  0  0  0  0  0  0  0
   -6.1844   -3.7275    0.0000 O   0  0  0  0  0  0  0  0  0  0  0  0
   -4.8254   -3.2859    0.0000 C   0  0  0  0  0  0  0  0  0  0  0  0
   -4.0184   -3.4574    0.0000 C   0  0  0  0  0  0  0  0  0  0  0  0
   -4.0606   -5.6398    0.0000 C   0  0  0  0  0  0  0  0  0  0  0  0
   -3.2536   -5.8113    0.0000 C   0  0  0  0  0  0  0  0  0  0  0  0
   -2.4045   -3.8005    0.0000 C   0  0  0  0  0  0  0  0  0  0  0  0
   -1.5975   -3.9720    0.0000 C   0  0  0  0  0  0  0  0  0  0  0  0
   -1.3426   -4.7566    0.0000 C   0  0  2  0  0  0  0  0  0  0  0  0
   -0.5889   -5.0922    0.0000 C   0  0  1  0  0  0  0  0  0  0  0  0
    0.1256   -4.6797    0.0000 O   0  0  0  0  0  0  0  0  0  0  0  0
    0.8400   -5.0922    0.0000 C   0  0  0  0  0  0  0  0  0  0  0  0
    1.5545   -4.6797    0.0000 C   0  0  0  0  0  0  0  0  0  0  0  0
    2.2690   -5.0922    0.0000 C   0  0  0  0  0  0  0  0  0  0  0  0
    2.9835   -4.6797    0.0000 C   0  0  0  0  0  0  0  0  0  0  0  0
    3.6979   -5.0922    0.0000 C   0  0  0  0  0  0  0  0  0  0  0  0
    4.4124   -4.6797    0.0000 C   0  0  0  0  0  0  0  0  0  0  0  0
    5.1269   -5.0922    0.0000 C   0  0  0  0  0  0  0  0  0  0  0  0
    5.8413   -4.6797    0.0000 C   0  0  0  0  0  0  0  0  0  0  0  0
    6.5558   -5.0922    0.0000 C   0  0  0  0  0  0  0  0  0  0  0  0
    7.2703   -4.6797    0.0000 C   0  0  0  0  0  0  0  0  0  0  0  0
    0.8400   -5.9172    0.0000 O   0  0  0  0  0  0  0  0  0  0  0  0
   -0.6751   -5.9127    0.0000 C   0  0  0  0  0  0  0  0  0  0  0  0
   -1.4821   -6.0842    0.0000 C   0  0  0  0  0  0  0  0  0  0  0  0
   -0.7295   -4.2046    0.0000 C   0  0  0  0  0  0  0  0  0  0  0  0
  1  2  1  0  0  0  0
  2  3  1  0  0  0  0
  3  4  1  0  0  0  0
  4  5  1  0  0  0  0
  5  6  2  0  0  0  0
  6  7  1  0  0  0  0
  7  8  2  0  0  0  0
  7  9  1  0  0  0  0
  9 10  1  0  0  0  0
  4 10  1  6  0  0  0
  5 11  1  0  0  0  0
 11 12  1  0  0  0  0
  2 12  1  6  0  0  0
  3 13  1  1  0  0  0
 13 14  1  0  0  0  0
 14 15  1  0  0  0  0
  1 15  1  0  0  0  0
 15 16  1  0  0  0  0
 16 17  1  1  0  0  0
 17 18  1  0  0  0  0
 18 19  1  0  0  0  0
 19 20  1  0  0  0  0
 20 21  1  0  0  0  0
 21 22  1  0  0  0  0
 22 23  1  0  0  0  0
 23 24  1  0  0  0  0
 24 25  1  0  0  0  0
 25 26  1  0  0  0  0
 26 27  1  0  0  0  0
 18 28  2  0  0  0  0
 16 29  1  0  0  0  0
 29 30  1  0  0  0  0
  1 30  1  1  0  0  0
 15 31  1  1  0  0  0
M  END
>  <Name>
Nandrolone decanoate

>  <CAS>
360-70-3

>  <Formula>
C28H44O3

>  <MolWt>
428.65 

>  <Bioactivity>
Nandrolone decanoate is an anabolic steroid used in doping.

>  <Pathways>
Others

>  <Target>
Others

>  <Receptor>
Others

>  <Reference>
1. Pozzi R, et al. Toxicol Mech Methods. 2013 May;23(4):289-96. 

$$$$
4350-09-8
  Mrv1561503291623562D          

 16 17  0  0  1  0            999 V2000
   -1.2054    0.9256    0.0000 C   0  0  1  0  0  0  0  0  0  0  0  0
   -0.3984    0.7541    0.0000 C   0  0  0  0  0  0  0  0  0  0  0  0
   -0.1435   -0.0305    0.0000 C   0  0  0  0  0  0  0  0  0  0  0  0
   -0.6284   -0.6979    0.0000 C   0  0  0  0  0  0  0  0  0  0  0  0
   -0.1435   -1.3654    0.0000 N   0  0  0  0  0  0  0  0  0  0  0  0
    0.6411   -1.1104    0.0000 C   0  0  0  0  0  0  0  0  0  0  0  0
    0.6411   -0.2854    0.0000 C   0  0  0  0  0  0  0  0  0  0  0  0
    1.3556    0.1271    0.0000 C   0  0  0  0  0  0  0  0  0  0  0  0
    2.0701   -0.2854    0.0000 C   0  0  0  0  0  0  0  0  0  0  0  0
    2.7845    0.1271    0.0000 O   0  0  0  0  0  0  0  0  0  0  0  0
    2.0701   -1.1104    0.0000 C   0  0  0  0  0  0  0  0  0  0  0  0
    1.3556   -1.5229    0.0000 C   0  0  0  0  0  0  0  0  0  0  0  0
   -1.4604    1.7103    0.0000 C   0  0  0  0  0  0  0  0  0  0  0  0
   -2.2673    1.8818    0.0000 O   0  0  0  0  0  0  0  0  0  0  0  0
   -0.9083    2.3234    0.0000 O   0  0  0  0  0  0  0  0  0  0  0  0
   -1.7575    0.3126    0.0000 N   0  0  0  0  0  0  0  0  0  0  0  0
  1  2  1  0  0  0  0
  2  3  1  0  0  0  0
  3  4  2  0  0  0  0
  4  5  1  0  0  0  0
  5  6  1  0  0  0  0
  6  7  2  0  0  0  0
  3  7  1  0  0  0  0
  7  8  1  0  0  0  0
  8  9  2  0  0  0  0
  9 10  1  0  0  0  0
  9 11  1  0  0  0  0
 11 12  2  0  0  0  0
  6 12  1  0  0  0  0
  1 13  1  0  0  0  0
 13 14  1  0  0  0  0
 13 15  2  0  0  0  0
  1 16  1  6  0  0  0
M  END
>  <Name>
L-5-Hydroxytryptophan

>  <CAS>
4350-09-8

>  <Formula>
C11H12N2O3

>  <MolWt>
220.22 

>  <Bioactivity>
The immediate precursor in the biosynthesis of SEROTONIN from tryptophan. It is used as an antiepileptic and antidepressant. 

>  <Pathways>
Amino Acids & Building Blocks

>  <Target>
Amino Acids and Derivatives

>  <Receptor>
Amino Acids and Derivatives

>  <Reference>
1. Overington JP, et al. Nat Rev Drug Discov. 2006 Dec;5(12):993-6.

$$$$
30123-17-2 
  Mrv1561503291623562D          

 30 31  0  0  0  0            999 V2000
   -1.5380    3.1152    0.0000 S   0  0  0  0  0  0  0  0  0  0  0  0
   -2.1428    3.6763    0.0000 O   0  5  0  0  0  0  0  0  0  0  0  0
   -2.2197    2.6504    0.0000 O   0  5  0  0  0  0  0  0  0  0  0  0
   -1.1255    3.8297    0.0000 N   0  0  0  0  0  0  0  0  0  0  0  0
   -0.3098    3.9526    0.0000 C   0  0  0  0  0  0  0  0  0  0  0  0
   -0.1262    4.7569    0.0000 C   0  0  0  0  0  0  0  0  0  0  0  0
    0.6622    5.0001    0.0000 C   0  0  0  0  0  0  0  0  0  0  0  0
    1.2669    4.4390    0.0000 C   0  0  0  0  0  0  0  0  0  0  0  0
    1.0834    3.6346    0.0000 C   0  0  0  0  0  0  0  0  0  0  0  0
    0.2950    3.3915    0.0000 C   0  0  0  0  0  0  0  0  0  0  0  0
    0.2334    2.5688    0.0000 C   0  0  0  0  0  0  0  0  0  0  0  0
    0.9478    2.1563    0.0000 N   0  0  0  0  0  0  0  0  0  0  0  0
    1.6623    2.5688    0.0000 C   0  0  0  0  0  0  0  0  0  0  0  0
    2.3768    2.1563    0.0000 C   0  0  0  0  0  0  0  0  0  0  0  0
    3.0912    2.5688    0.0000 C   0  0  0  0  0  0  0  0  0  0  0  0
    3.8057    2.1563    0.0000 C   0  0  0  0  0  0  0  0  0  0  0  0
    4.5202    2.5688    0.0000 C   0  0  0  0  0  0  0  0  0  0  0  0
    5.2347    2.1563    0.0000 C   0  0  0  0  0  0  0  0  0  0  0  0
    5.9491    2.5688    0.0000 C   0  0  0  0  0  0  0  0  0  0  0  0
    6.6636    2.1563    0.0000 O   0  0  0  0  0  0  0  0  0  0  0  0
    5.9491    3.3938    0.0000 O   0  0  0  0  0  0  0  0  0  0  0  0
   -0.4483    2.1040    0.0000 C   0  0  0  0  0  0  0  0  0  0  0  0
   -0.2647    1.2997    0.0000 C   0  0  0  0  0  0  0  0  0  0  0  0
   -0.8695    0.7386    0.0000 C   0  0  0  0  0  0  0  0  0  0  0  0
   -1.6578    0.9818    0.0000 C   0  0  0  0  0  0  0  0  0  0  0  0
   -2.2626    0.4206    0.0000 Cl  0  0  0  0  0  0  0  0  0  0  0  0
   -1.8414    1.7861    0.0000 C   0  0  0  0  0  0  0  0  0  0  0  0
   -1.2366    2.3472    0.0000 C   0  0  0  0  0  0  0  0  0  0  0  0
   -1.5903    4.5113    0.0000 C   0  0  0  0  0  0  0  0  0  0  0  0
   -2.7476    4.2375    0.0000 Na  0  3  0  0  0  0  0  0  0  0  0  0
  1  2  1  0  0  0  0
  1  3  1  0  0  0  0
  1  4  1  0  0  0  0
  4  5  1  0  0  0  0
  5  6  2  0  0  0  0
  6  7  1  0  0  0  0
  7  8  2  0  0  0  0
  8  9  1  0  0  0  0
  9 10  2  0  0  0  0
  5 10  1  0  0  0  0
 10 11  1  0  0  0  0
 11 12  1  0  0  0  0
 12 13  1  0  0  0  0
 13 14  1  0  0  0  0
 14 15  1  0  0  0  0
 15 16  1  0  0  0  0
 16 17  1  0  0  0  0
 17 18  1  0  0  0  0
 18 19  1  0  0  0  0
 19 20  2  0  0  0  0
 19 21  1  0  0  0  0
 11 22  1  0  0  0  0
 22 23  2  0  0  0  0
 23 24  1  0  0  0  0
 24 25  2  0  0  0  0
 25 26  1  0  0  0  0
 25 27  1  0  0  0  0
 27 28  2  0  0  0  0
  1 28  1  0  0  0  0
 22 28  1  0  0  0  0
  4 29  1  0  0  0  0
M  CHG  3   2  -1   3  -1  30   1
M  END
>  <Name>
Tianeptine sodium

>  <CAS>
30123-17-2 

>  <Formula>
C21H24ClN2NaO4S

>  <MolWt>
458.93 

>  <Bioactivity>
Tianeptine sodium is a selective serotonin reuptake enhancer (SSRE), used for treating major depressive episodes.

>  <Pathways>
Neuroscience

>  <Target>
5-HT Receptor agonist

>  <Receptor>
5-HT Receptor

>  <Reference>
1. Kim SJ, et al. Neuropharmacology, 2006, 50(7), 824-833.

$$$$
86408-72-2
  Mrv1561503291623562D          

 27 28  0  0  1  0            999 V2000
    1.5395    0.4125    0.0000 C   0  0  0  0  0  0  0  0  0  0  0  0
    2.3645    0.4125    0.0000 C   0  0  0  0  0  0  0  0  0  0  0  0
    2.7770   -0.3020    0.0000 C   0  0  0  0  0  0  0  0  0  0  0  0
    3.6020   -0.3020    0.0000 C   0  0  0  0  0  0  0  0  0  0  0  0
    4.0145    0.4125    0.0000 C   0  0  0  0  0  0  0  0  0  0  0  0
    4.8395    0.4125    0.0000 C   0  0  0  0  0  0  0  0  0  0  0  0
    5.2520    1.1270    0.0000 C   0  0  0  0  0  0  0  0  0  0  0  0
    5.2520   -0.3020    0.0000 C   0  0  0  0  0  0  0  0  0  0  0  0
    3.6020    1.1270    0.0000 C   0  0  0  0  0  0  0  0  0  0  0  0
    2.7770    1.1270    0.0000 C   0  0  0  0  0  0  0  0  0  0  0  0
    4.0145    1.8414    0.0000 S   0  0  0  0  0  0  0  0  0  0  0  0
    4.7289    1.4289    0.0000 O   0  0  0  0  0  0  0  0  0  0  0  0
    3.3000    2.2539    0.0000 O   0  0  0  0  0  0  0  0  0  0  0  0
    4.4270    2.5559    0.0000 O   0  5  0  0  0  0  0  0  0  0  0  0
    2.3645   -1.0164    0.0000 C   0  0  0  0  0  0  0  0  0  0  0  0
    1.5395   -1.0164    0.0000 C   0  0  0  0  0  0  0  0  0  0  0  0
    1.1270   -0.3020    0.0000 C   0  0  0  0  0  0  0  0  0  0  0  0
    0.3020   -0.3020    0.0000 C   0  0  0  0  0  0  0  0  0  0  0  0
   -0.1105    0.4125    0.0000 C   0  0  0  0  0  0  0  0  0  0  0  0
    0.3020    1.1270    0.0000 C   0  0  0  0  0  0  0  0  0  0  0  0
    1.1270    1.1270    0.0000 C   0  0  0  0  0  0  0  0  0  0  0  0
    0.2732   -1.1265    0.0000 C   0  0  0  0  0  0  0  0  0  0  0  0
    0.9728   -1.5637    0.0000 O   0  0  0  0  0  0  0  0  0  0  0  0
   -0.4553   -1.5138    0.0000 O   0  0  0  0  0  0  0  0  0  0  0  0
   -0.3977   -0.7392    0.0000 C   0  0  0  0  0  0  0  0  0  0  0  0
    1.9520    1.1270    0.0000 C   0  0  0  0  0  0  0  0  0  0  0  0
    4.8395    3.2704    0.0000 Na  0  3  0  0  0  0  0  0  0  0  0  0
  1  2  1  0  0  0  0
  2  3  2  0  0  0  0
  3  4  1  0  0  0  0
  4  5  2  0  0  0  0
  5  6  1  0  0  0  0
  6  7  1  0  0  0  0
  6  8  1  0  0  0  0
  5  9  1  0  0  0  0
  9 10  2  0  0  0  0
  2 10  1  0  0  0  0
  9 11  1  0  0  0  0
 11 12  2  0  0  0  0
 11 13  2  0  0  0  0
 11 14  1  0  0  0  0
  3 15  1  0  0  0  0
 15 16  1  0  0  0  0
 16 17  1  0  0  0  0
  1 17  1  0  0  0  0
 17 18  1  0  0  0  0
 18 19  1  0  0  0  0
 19 20  1  0  0  0  0
 20 21  1  0  0  0  0
  1 21  1  0  0  0  0
 18 22  1  0  0  0  0
 22 23  1  0  0  0  0
 22 24  2  0  0  0  0
 18 25  1  0  0  0  0
  1 26  1  0  0  0  0
M  CHG  2  14  -1  27   1
M  END
>  <Name>
Ecabet Sodium

>  <CAS>
86408-72-2

>  <Formula>
C20H27NaO5S

>  <MolWt>
402.48 

>  <Bioactivity>
Ecabet sodium: a potential new agent in the management of distal colitis.

>  <Pathways>
Others

>  <Target>
Others

>  <Receptor>
Others

>  <Reference>
1. Lawrance IC. J Gastroenterol Hepatol. 2010 Jul;25(7):1182-4. 

$$$$
62613-82-5
  Mrv1561503291623562D          

 11 11  0  0  0  0            999 V2000
    0.5678    1.9393    0.0000 C   0  0  0  0  0  0  0  0  0  0  0  0
    0.5678    1.1143    0.0000 N   0  0  0  0  0  0  0  0  0  0  0  0
    1.2352    0.6294    0.0000 C   0  0  0  0  0  0  0  0  0  0  0  0
    0.9803   -0.1553    0.0000 C   0  0  0  0  0  0  0  0  0  0  0  0
    1.4652   -0.8227    0.0000 O   0  0  0  0  0  0  0  0  0  0  0  0
    0.1553   -0.1553    0.0000 C   0  0  0  0  0  0  0  0  0  0  0  0
   -0.0997    0.6294    0.0000 C   0  0  0  0  0  0  0  0  0  0  0  0
   -0.8843    0.8843    0.0000 O   0  0  0  0  0  0  0  0  0  0  0  0
    1.2822    2.3518    0.0000 C   0  0  0  0  0  0  0  0  0  0  0  0
    1.2822    3.1768    0.0000 N   0  0  0  0  0  0  0  0  0  0  0  0
    1.9967    1.9393    0.0000 O   0  0  0  0  0  0  0  0  0  0  0  0
  1  2  1  0  0  0  0
  2  3  1  0  0  0  0
  3  4  1  0  0  0  0
  4  5  1  0  0  0  0
  4  6  1  0  0  0  0
  6  7  1  0  0  0  0
  2  7  1  0  0  0  0
  7  8  2  0  0  0  0
  1  9  1  0  0  0  0
  9 10  1  0  0  0  0
  9 11  2  0  0  0  0
M  END
>  <Name>
Oxiracetam

>  <CAS>
62613-82-5

>  <Formula>
C6H10N2O3

>  <MolWt>
158.16 

>  <Bioactivity>
Oxiracetam, a cyclic derivative of gamma-aminobutyric acid (GABA), is used as a nootropic drug to improve memory and learning.

>  <Pathways>
Neuroscience

>  <Target>
GABAR agonist

>  <Receptor>
GABAR

>  <Reference>
1. Sansone M, et al. Arch Int Pharmacodyn Ther. 1985, 275(1), 86-92.

$$$$
103129-82-4
  Mrv1561503291623562D          

 38 39  0  0  0  0            999 V2000
    2.2590    1.4905    0.0000 C   0  0  0  0  0  0  0  0  0  0  0  0
    1.5445    1.0780    0.0000 C   0  0  0  0  0  0  0  0  0  0  0  0
    0.8301    1.4905    0.0000 O   0  0  0  0  0  0  0  0  0  0  0  0
    0.1156    1.0780    0.0000 C   0  0  0  0  0  0  0  0  0  0  0  0
   -0.5989    1.4905    0.0000 O   0  0  0  0  0  0  0  0  0  0  0  0
    0.1156    0.2530    0.0000 C   0  0  0  0  0  0  0  0  0  0  0  0
    0.8301   -0.1595    0.0000 C   0  0  0  0  0  0  0  0  0  0  0  0
    0.8301   -0.9845    0.0000 N   0  0  0  0  0  0  0  0  0  0  0  0
    0.1156   -1.3970    0.0000 C   0  0  0  0  0  0  0  0  0  0  0  0
   -0.5989   -0.9845    0.0000 C   0  0  0  0  0  0  0  0  0  0  0  0
   -0.5989   -0.1595    0.0000 C   0  0  0  0  0  0  0  0  0  0  0  0
   -1.3133    0.2530    0.0000 C   0  0  0  0  0  0  0  0  0  0  0  0
   -2.0278   -0.1595    0.0000 C   0  0  0  0  0  0  0  0  0  0  0  0
   -2.7423    0.2530    0.0000 C   0  0  0  0  0  0  0  0  0  0  0  0
   -2.7423    1.0780    0.0000 C   0  0  0  0  0  0  0  0  0  0  0  0
   -2.0278    1.4905    0.0000 C   0  0  0  0  0  0  0  0  0  0  0  0
   -1.3133    1.0780    0.0000 C   0  0  0  0  0  0  0  0  0  0  0  0
   -0.9778    1.8317    0.0000 Cl  0  0  0  0  0  0  0  0  0  0  0  0
   -1.3133   -1.3970    0.0000 C   0  0  0  0  0  0  0  0  0  0  0  0
   -2.0278   -0.9845    0.0000 O   0  0  0  0  0  0  0  0  0  0  0  0
   -1.3133   -2.2220    0.0000 O   0  0  0  0  0  0  0  0  0  0  0  0
   -2.0278   -2.6345    0.0000 C   0  0  0  0  0  0  0  0  0  0  0  0
    0.1156   -2.2220    0.0000 C   0  0  0  0  0  0  0  0  0  0  0  0
    1.5445    0.2530    0.0000 C   0  0  0  0  0  0  0  0  0  0  0  0
    2.2590   -0.1595    0.0000 O   0  0  0  0  0  0  0  0  0  0  0  0
    2.9735    0.2530    0.0000 C   0  0  0  0  0  0  0  0  0  0  0  0
    3.6880   -0.1595    0.0000 C   0  0  0  0  0  0  0  0  0  0  0  0
    4.4024    0.2530    0.0000 N   0  0  0  0  0  0  0  0  0  0  0  0
    7.1131   -1.5675    0.0000 C   0  0  0  0  0  0  0  0  0  0  0  0
    6.3987   -1.1550    0.0000 C   0  0  0  0  0  0  0  0  0  0  0  0
    6.3987   -0.3300    0.0000 C   0  0  0  0  0  0  0  0  0  0  0  0
    7.1131    0.0825    0.0000 C   0  0  0  0  0  0  0  0  0  0  0  0
    7.8276   -0.3300    0.0000 C   0  0  0  0  0  0  0  0  0  0  0  0
    7.8276   -1.1550    0.0000 C   0  0  0  0  0  0  0  0  0  0  0  0
    7.1131    0.9075    0.0000 S   0  0  0  0  0  0  0  0  0  0  0  0
    7.1131    1.7325    0.0000 O   0  0  0  0  0  0  0  0  0  0  0  0
    7.9381    0.9075    0.0000 O   0  0  0  0  0  0  0  0  0  0  0  0
    6.2881    0.9075    0.0000 O   0  0  0  0  0  0  0  0  0  0  0  0
  1  2  1  0  0  0  0
  2  3  1  0  0  0  0
  3  4  1  0  0  0  0
  4  5  2  0  0  0  0
  4  6  1  0  0  0  0
  6  7  2  0  0  0  0
  7  8  1  0  0  0  0
  8  9  1  0  0  0  0
  9 10  2  0  0  0  0
 10 11  1  0  0  0  0
  6 11  1  0  0  0  0
 11 12  1  0  0  0  0
 12 13  2  0  0  0  0
 13 14  1  0  0  0  0
 14 15  2  0  0  0  0
 15 16  1  0  0  0  0
 16 17  2  0  0  0  0
 12 17  1  0  0  0  0
 17 18  1  0  0  0  0
 10 19  1  0  0  0  0
 19 20  2  0  0  0  0
 19 21  1  0  0  0  0
 21 22  1  0  0  0  0
  9 23  1  0  0  0  0
  7 24  1  0  0  0  0
 24 25  1  0  0  0  0
 25 26  1  0  0  0  0
 26 27  1  0  0  0  0
 27 28  1  0  0  0  0
 29 30  2  0  0  0  0
 30 31  1  0  0  0  0
 31 32  2  0  0  0  0
 32 33  1  0  0  0  0
 33 34  2  0  0  0  0
 29 34  1  0  0  0  0
 32 35  1  0  0  0  0
 35 36  2  0  0  0  0
 35 37  2  0  0  0  0
 35 38  1  0  0  0  0
M  END
>  <Name>
Levamlodipine

>  <CAS>
103129-82-4

>  <Formula>
C20H25N2O5Cl

>  <MolWt>
408.88 

>  <Bioactivity>
Amlodipine is a synthetic dihydropyridine and a calcium channel blocker with antihypertensive and antianginal properties. Amlodipine inhibits the influx of extracellular calcium ions into myocardial and peripheral vascular smooth muscle cells, thereby preventing vascular and myocardial contraction. This results in a dilatation of the main coronary and systemic arteries, decreased myocardial contractility, increased blood flow and oxygen delivery to the myocardial tissue, and decreased total peripheral resistance. This agent may also modulate multi-drug response (MDR) activity through inhibition of the p-glycoprotein efflux pump.

>  <Pathways>
Membrane Transporter/Ion Channel

>  <Target>
Calcium Channel inhibitor

>  <Receptor>
Calcium Channel

>  <Reference>
1. Gui H, et al. CNS Neurosci Ther. 2013 Mar;19(3):178-82.

$$$$
144143-96-4
  Mrv1561503291623562D          

 35 36  0  0  0  0            999 V2000
    0.0000   -0.8250    0.0000 C   0  0  0  0  0  0  0  0  0  0  0  0
    0.0000    0.0000    0.0000 S   0  0  0  0  0  0  0  0  0  0  0  0
    0.0000    0.8250    0.0000 O   0  0  0  0  0  0  0  0  0  0  0  0
    0.8250   -0.0000    0.0000 O   0  0  0  0  0  0  0  0  0  0  0  0
   -0.8250    0.0000    0.0000 O   0  0  0  0  0  0  0  0  0  0  0  0
    3.7435   -2.8172    0.0000 C   0  0  0  0  0  0  0  0  0  0  0  0
    4.4109   -2.3323    0.0000 C   0  0  0  0  0  0  0  0  0  0  0  0
    5.0783   -2.8172    0.0000 S   0  0  0  0  0  0  0  0  0  0  0  0
    4.8234   -3.6019    0.0000 C   0  0  0  0  0  0  0  0  0  0  0  0
    3.9984   -3.6019    0.0000 C   0  0  0  0  0  0  0  0  0  0  0  0
    4.4109   -1.5073    0.0000 C   0  0  0  0  0  0  0  0  0  0  0  0
    5.1254   -1.0948    0.0000 C   0  0  0  0  0  0  0  0  0  0  0  0
    5.1254   -0.2698    0.0000 C   0  0  0  0  0  0  0  0  0  0  0  0
    4.4109    0.1427    0.0000 C   0  0  0  0  0  0  0  0  0  0  0  0
    3.6572   -0.1929    0.0000 C   0  0  0  0  0  0  0  0  0  0  0  0
    3.1052    0.4202    0.0000 N   0  0  0  0  0  0  0  0  0  0  0  0
    3.5177    1.1347    0.0000 C   0  0  0  0  0  0  0  0  0  0  0  0
    4.3247    0.9632    0.0000 N   0  0  0  0  0  0  0  0  0  0  0  0
    4.9378    1.5152    0.0000 C   0  0  0  0  0  0  0  0  0  0  0  0
    5.7224    1.2603    0.0000 C   0  0  0  0  0  0  0  0  0  0  0  0
    6.3355    1.8123    0.0000 C   0  0  0  0  0  0  0  0  0  0  0  0
    7.1201    1.5574    0.0000 C   0  0  0  0  0  0  0  0  0  0  0  0
    7.2916    0.7504    0.0000 C   0  0  0  0  0  0  0  0  0  0  0  0
    6.6785    0.1983    0.0000 C   0  0  0  0  0  0  0  0  0  0  0  0
    5.8939    0.4533    0.0000 C   0  0  0  0  0  0  0  0  0  0  0  0
    8.0763    0.4954    0.0000 C   0  0  0  0  0  0  0  0  0  0  0  0
    8.6893    1.0475    0.0000 O   0  0  0  0  0  0  0  0  0  0  0  0
    8.2478   -0.3115    0.0000 O   0  0  0  0  0  0  0  0  0  0  0  0
    3.1821    1.8884    0.0000 C   0  0  0  0  0  0  0  0  0  0  0  0
    3.6671    2.5558    0.0000 C   0  0  0  0  0  0  0  0  0  0  0  0
    3.3315    3.3095    0.0000 C   0  0  0  0  0  0  0  0  0  0  0  0
    3.8164    3.9769    0.0000 C   0  0  0  0  0  0  0  0  0  0  0  0
    5.8399   -1.5073    0.0000 C   0  0  0  0  0  0  0  0  0  0  0  0
    6.5543   -1.0948    0.0000 O   0  0  0  0  0  0  0  0  0  0  0  0
    5.8399   -2.3323    0.0000 O   0  0  0  0  0  0  0  0  0  0  0  0
  1  2  1  0  0  0  0
  2  3  2  0  0  0  0
  2  4  2  0  0  0  0
  2  5  1  0  0  0  0
  6  7  2  0  0  0  0
  7  8  1  0  0  0  0
  8  9  1  0  0  0  0
  9 10  2  0  0  0  0
  6 10  1  0  0  0  0
  7 11  1  0  0  0  0
 11 12  1  0  0  0  0
 12 13  2  0  0  0  0
 13 14  1  0  0  0  0
 14 15  2  0  0  0  0
 15 16  1  0  0  0  0
 16 17  2  0  0  0  0
 17 18  1  0  0  0  0
 14 18  1  0  0  0  0
 18 19  1  0  0  0  0
 19 20  1  0  0  0  0
 20 21  2  0  0  0  0
 21 22  1  0  0  0  0
 22 23  2  0  0  0  0
 23 24  1  0  0  0  0
 24 25  2  0  0  0  0
 20 25  1  0  0  0  0
 23 26  1  0  0  0  0
 26 27  2  0  0  0  0
 26 28  1  0  0  0  0
 17 29  1  0  0  0  0
 29 30  1  0  0  0  0
 30 31  1  0  0  0  0
 31 32  1  0  0  0  0
 12 33  1  0  0  0  0
 33 34  2  0  0  0  0
 33 35  1  0  0  0  0
M  END
>  <Name>
Eprosartan Mesylate

>  <CAS>
144143-96-4

>  <Formula>
C23H24N2O4S.CH4O3S

>  <MolWt>
520.62 

>  <Bioactivity>
Eprosartan is a nonpeptide angiotensin II receptor antagonist, [3H]-eprosartan binds to the AT1 receptor with KD of 0.83 nM in rat vascular smooth muscle cells.

>  <Pathways>
Angiogenesis;Endocrinology/ Hormones

>  <Target>
RAAS inhibitor; ACE inhibitor

>  <Receptor>
AT1 receptor

>  <Reference>
1. Plosker GL, et al. Drugs, 2000, 60(1), 177-201.

$$$$
T0969
  Mrv1561503291623562D          

 64 71  0  0  1  0            999 V2000
    0.6954    1.1981    0.0000 C   0  0  2  0  0  0  0  0  0  0  0  0
    0.7304    0.3738    0.0000 O   0  0  0  0  0  0  0  0  0  0  0  0
   -0.0434    0.8309    0.0000 C   0  0  2  0  0  0  0  0  0  0  0  0
   -0.6209    1.4201    0.0000 O   0  0  0  0  0  0  0  0  0  0  0  0
   -0.2390    2.1514    0.0000 C   0  0  0  0  0  0  0  0  0  0  0  0
    0.5745    2.0142    0.0000 C   0  0  0  0  0  0  0  0  0  0  0  0
    1.2208    2.5269    0.0000 C   0  0  0  0  0  0  0  0  0  0  0  0
    1.1000    3.3430    0.0000 C   0  0  0  0  0  0  0  0  0  0  0  0
    1.7463    3.8558    0.0000 C   0  0  0  0  0  0  0  0  0  0  0  0
    1.6254    4.6719    0.0000 C   0  0  1  0  0  0  0  0  0  0  0  0
    2.2717    5.1846    0.0000 C   0  0  0  0  0  0  0  0  0  0  0  0
    2.1508    6.0007    0.0000 O   0  0  0  0  0  0  0  0  0  0  0  0
    1.3836    6.3041    0.0000 C   0  0  2  0  0  0  0  0  0  0  0  0
    0.7373    5.7913    0.0000 O   0  0  0  0  0  0  0  0  0  0  0  0
   -0.0299    6.0947    0.0000 C   0  0  2  0  0  0  0  0  0  0  0  0
   -0.1508    6.9108    0.0000 C   0  0  0  0  0  0  0  0  0  0  0  0
   -0.9180    7.2141    0.0000 O   0  0  0  0  0  0  0  0  0  0  0  0
   -1.0389    8.0302    0.0000 C   0  0  2  0  0  0  0  0  0  0  0  0
   -1.8061    8.3335    0.0000 O   0  0  0  0  0  0  0  0  0  0  0  0
   -1.9270    9.1496    0.0000 C   0  0  2  0  0  0  0  0  0  0  0  0
   -1.2807    9.6624    0.0000 C   0  0  2  0  0  0  0  0  0  0  0  0
   -1.4016   10.4785    0.0000 O   0  0  0  0  0  0  0  0  0  0  0  0
   -0.5135    9.3590    0.0000 C   0  0  1  0  0  0  0  0  0  0  0  0
    0.1328    9.8718    0.0000 O   0  0  0  0  0  0  0  0  0  0  0  0
    0.9000    9.5684    0.0000 C   0  0  0  0  0  0  0  0  0  0  0  0
   -0.3926    8.5429    0.0000 C   0  0  0  0  0  0  0  0  0  0  0  0
   -2.6943    9.4530    0.0000 C   0  0  0  0  0  0  0  0  0  0  0  0
    0.4955    7.4235    0.0000 C   0  0  1  0  0  0  0  0  0  0  0  0
    0.3746    8.2396    0.0000 O   0  0  0  0  0  0  0  0  0  0  0  0
    1.0209    8.7523    0.0000 C   0  0  0  0  0  0  0  0  0  0  0  0
    1.2627    7.1202    0.0000 C   0  0  0  0  0  0  0  0  0  0  0  0
   -0.6763    5.5819    0.0000 C   0  0  0  0  0  0  0  0  0  0  0  0
    3.0389    4.8813    0.0000 C   0  0  0  0  0  0  0  0  0  0  0  0
    3.1598    4.0652    0.0000 C   0  0  0  0  0  0  0  0  0  0  0  0
    3.9270    3.7618    0.0000 C   0  0  0  0  0  0  0  0  0  0  0  0
    4.0479    2.9457    0.0000 C   0  0  1  0  0  0  0  0  0  0  0  0
    4.8151    2.6424    0.0000 O   0  0  0  0  0  0  0  0  0  0  0  0
    4.9360    1.8263    0.0000 C   0  0  1  0  0  0  0  0  0  0  0  0
    5.5823    2.3390    0.0000 O   0  0  0  0  0  0  0  0  0  0  0  0
    6.3495    2.0357    0.0000 C   0  0  1  0  0  0  0  0  0  0  0  0
    6.4704    1.2196    0.0000 C   0  0  2  0  0  0  0  0  0  0  0  0
    5.8241    0.7068    0.0000 C   0  0  0  0  0  0  0  0  0  0  0  0
    5.0569    1.0102    0.0000 C   0  0  0  0  0  0  0  0  0  0  0  0
    7.2376    0.9162    0.0000 C   0  0  0  0  0  0  0  0  0  0  0  0
    6.9958    2.5484    0.0000 C   0  0  0  0  0  0  0  0  0  0  0  0
    6.8749    3.3645    0.0000 C   0  0  0  0  0  0  0  0  0  0  0  0
    7.5212    3.8773    0.0000 C   0  0  0  0  0  0  0  0  0  0  0  0
    8.2884    3.5739    0.0000 C   0  0  0  0  0  0  0  0  0  0  0  0
    8.4093    2.7578    0.0000 C   0  0  0  0  0  0  0  0  0  0  0  0
    7.7630    2.2451    0.0000 C   0  0  0  0  0  0  0  0  0  0  0  0
    4.2897    1.3135    0.0000 C   0  0  0  0  0  0  0  0  0  0  0  0
    3.5225    1.6169    0.0000 C   0  0  1  0  0  0  0  0  0  0  0  0
    2.8762    1.1041    0.0000 O   0  0  0  0  0  0  0  0  0  0  0  0
    2.1089    1.4075    0.0000 C   0  0  0  0  0  0  0  0  0  0  0  0
    1.9881    2.2236    0.0000 O   0  0  0  0  0  0  0  0  0  0  0  0
    1.4626    0.8947    0.0000 C   0  0  2  0  0  0  0  0  0  0  0  0
    1.3314   -0.0815    0.0000 C   0  0  0  0  0  0  0  0  0  0  0  0
    0.5926   -0.4487    0.0000 C   0  0  0  0  0  0  0  0  0  0  0  0
   -0.0948    0.0075    0.0000 C   0  0  1  0  0  0  0  0  0  0  0  0
   -0.8336   -0.3596    0.0000 O   0  0  0  0  0  0  0  0  0  0  0  0
    0.5412   -1.2721    0.0000 C   0  0  0  0  0  0  0  0  0  0  0  0
    3.4016    2.4330    0.0000 C   0  0  0  0  0  0  0  0  0  0  0  0
    3.6852    5.3940    0.0000 C   0  0  0  0  0  0  0  0  0  0  0  0
    0.8582    4.9752    0.0000 C   0  0  0  0  0  0  0  0  0  0  0  0
  1  2  1  6  0  0  0
  1  3  1  0  0  0  0
  3  4  1  1  0  0  0
  4  5  1  0  0  0  0
  5  6  1  0  0  0  0
  1  6  1  0  0  0  0
  6  7  2  0  0  0  0
  7  8  1  4  0  0  0
  8  9  2  0  0  0  0
  9 10  1  0  0  0  0
 10 11  1  0  0  0  0
 11 12  1  0  0  0  0
 13 12  1  6  0  0  0
 13 14  1  0  0  0  0
 14 15  1  0  0  0  0
 15 16  1  0  0  0  0
 16 17  1  0  0  0  0
 18 17  1  6  0  0  0
 18 19  1  0  0  0  0
 19 20  1  0  0  0  0
 20 21  1  0  0  0  0
 21 22  1  6  0  0  0
 21 23  1  0  0  0  0
 23 24  1  1  0  0  0
 24 25  1  0  0  0  0
 23 26  1  0  0  0  0
 18 26  1  0  0  0  0
 20 27  1  1  0  0  0
 16 28  1  0  0  0  0
 28 29  1  1  0  0  0
 29 30  1  0  0  0  0
 28 31  1  0  0  0  0
 13 31  1  0  0  0  0
 15 32  1  1  0  0  0
 11 33  1  0  0  0  0
 33 34  2  0  0  0  0
 34 35  1  0  0  0  0
 35 36  1  0  0  0  0
 36 37  1  0  0  0  0
 38 37  1  1  0  0  0
 38 39  1  0  0  0  0
 39 40  1  0  0  0  0
 40 41  1  0  0  0  0
 41 42  1  0  0  0  0
 42 43  2  0  0  0  0
 38 43  1  0  0  0  0
 41 44  1  1  0  0  0
 40 45  1  6  0  0  0
 45 46  1  0  0  0  0
 46 47  1  0  0  0  0
 47 48  1  0  0  0  0
 48 49  1  0  0  0  0
 49 50  1  0  0  0  0
 45 50  1  0  0  0  0
 38 51  1  0  0  0  0
 51 52  1  0  0  0  0
 52 53  1  0  0  0  0
 53 54  1  0  0  0  0
 54 55  2  0  0  0  0
 54 56  1  0  0  0  0
  1 56  1  0  0  0  0
 56 57  1  6  0  0  0
 57 58  2  0  0  0  0
 58 59  1  0  0  0  0
  3 59  1  0  0  0  0
 59 60  1  1  0  0  0
 58 61  1  0  0  0  0
 52 62  1  1  0  0  0
 36 62  1  1  0  0  0
 33 63  1  0  0  0  0
 10 64  1  6  0  0  0
M  END
>  <Name>
Doramectin

>  <CAS>
117704-25-3

>  <Formula>
C50H74O14

>  <MolWt>
899.11 

>  <Bioactivity>
Doramectin is an antiparasitic agent.

>  <Pathways>
Microbiology & Virology 

>  <Target>
Antiparasitic

>  <Receptor>
Antiparasitic

>  <Reference>
1. Davey RB, et al. Exp Appl Acarol. 2012 Apr;56(4):365-74.

$$$$
179474-81-8
  Mrv1561503291623562D          

 25 27  0  0  0  0            999 V2000
    1.4289   -5.7750    0.0000 C   0  0  0  0  0  0  0  0  0  0  0  0
    0.7145   -6.1875    0.0000 C   0  0  0  0  0  0  0  0  0  0  0  0
    0.7145   -7.0125    0.0000 Cl  0  0  0  0  0  0  0  0  0  0  0  0
    0.0000   -5.7750    0.0000 C   0  0  0  0  0  0  0  0  0  0  0  0
   -0.0000   -4.9500    0.0000 C   0  0  0  0  0  0  0  0  0  0  0  0
    0.7145   -4.5375    0.0000 C   0  0  0  0  0  0  0  0  0  0  0  0
    1.4289   -4.9500    0.0000 C   0  0  0  0  0  0  0  0  0  0  0  0
    2.1434   -4.5375    0.0000 C   0  0  0  0  0  0  0  0  0  0  0  0
    2.8579   -4.9500    0.0000 O   0  0  0  0  0  0  0  0  0  0  0  0
    2.1434   -3.7125    0.0000 N   0  0  0  0  0  0  0  0  0  0  0  0
    2.8579   -3.3000    0.0000 C   0  0  0  0  0  0  0  0  0  0  0  0
    2.8579   -2.4750    0.0000 C   0  0  0  0  0  0  0  0  0  0  0  0
    3.5724   -2.0625    0.0000 C   0  0  0  0  0  0  0  0  0  0  0  0
    4.2868   -2.4750    0.0000 N   0  0  0  0  0  0  0  0  0  0  0  0
    4.2868   -3.3000    0.0000 C   0  0  0  0  0  0  0  0  0  0  0  0
    3.5724   -3.7125    0.0000 C   0  0  0  0  0  0  0  0  0  0  0  0
    5.0013   -2.0625    0.0000 C   0  0  0  0  0  0  0  0  0  0  0  0
    5.7158   -2.4750    0.0000 C   0  0  0  0  0  0  0  0  0  0  0  0
    6.4302   -2.0625    0.0000 C   0  0  0  0  0  0  0  0  0  0  0  0
    7.1447   -2.4750    0.0000 O   0  0  0  0  0  0  0  0  0  0  0  0
    7.8592   -2.0625    0.0000 C   0  0  0  0  0  0  0  0  0  0  0  0
    0.5429   -3.7305    0.0000 O   0  0  0  0  0  0  0  0  0  0  0  0
   -0.2775   -3.6443    0.0000 C   0  0  0  0  0  0  0  0  0  0  0  0
   -0.6131   -4.3980    0.0000 C   0  0  0  0  0  0  0  0  0  0  0  0
   -0.7145   -6.1875    0.0000 N   0  0  0  0  0  0  0  0  0  0  0  0
  1  2  2  0  0  0  0
  2  3  1  0  0  0  0
  2  4  1  0  0  0  0
  4  5  2  0  0  0  0
  5  6  1  0  0  0  0
  6  7  2  0  0  0  0
  1  7  1  0  0  0  0
  7  8  1  0  0  0  0
  8  9  2  0  0  0  0
  8 10  1  0  0  0  0
 10 11  1  0  0  0  0
 11 12  1  0  0  0  0
 12 13  1  0  0  0  0
 13 14  1  0  0  0  0
 14 15  1  0  0  0  0
 15 16  1  0  0  0  0
 11 16  1  0  0  0  0
 14 17  1  0  0  0  0
 17 18  1  0  0  0  0
 18 19  1  0  0  0  0
 19 20  1  0  0  0  0
 20 21  1  0  0  0  0
  6 22  1  0  0  0  0
 22 23  1  0  0  0  0
 23 24  1  0  0  0  0
  5 24  1  0  0  0  0
  4 25  1  0  0  0  0
M  END
>  <Name>
Prucalopride

>  <CAS>
179474-81-8

>  <Formula>
C18H26ClN3O3

>  <MolWt>
367.87 

>  <Bioactivity>
Prucalopride is a selective, high affinity 5-HT receptor agonist for 5-HT4A and 5-HT4B receptor with Ki of 2.5 nM and 8 nM, respectively, exhibits >290-fold selectivity against other 5-HT receptor subtypes.

>  <Pathways>
Neuroscience

>  <Target>
5-HT Receptor agonist

>  <Receptor>
5-HT4A/B;5-HT3;5-HT1A

>  <Reference>
1. Briejer MR, et al. Eur J Pharmacol, 2001, 423(1), 71-83.

$$$$
31637-97-5
  Mrv1561503291623562D          

 27 26  0  0  0  0            999 V2000
    0.4125    0.0000    0.0000 H   0  3  0  0  0  0  0  0  0  0  0  0
    4.4416    0.4290    0.0000 C   0  0  0  0  0  0  0  0  0  0  0  0
    4.4416   -0.3960    0.0000 C   0  0  0  0  0  0  0  0  0  0  0  0
    5.1561   -0.8085    0.0000 O   0  0  0  0  0  0  0  0  0  0  0  0
    5.8706   -0.3960    0.0000 C   0  0  0  0  0  0  0  0  0  0  0  0
    5.4581    0.3185    0.0000 C   0  0  0  0  0  0  0  0  0  0  0  0
    6.2831   -1.1105    0.0000 C   0  0  0  0  0  0  0  0  0  0  0  0
    6.5850    0.0165    0.0000 C   0  0  0  0  0  0  0  0  0  0  0  0
    7.2995   -0.3960    0.0000 O   0  0  0  0  0  0  0  0  0  0  0  0
    8.0140    0.0165    0.0000 C   0  0  0  0  0  0  0  0  0  0  0  0
    8.7285   -0.3960    0.0000 C   0  0  0  0  0  0  0  0  0  0  0  0
    9.4429    0.0165    0.0000 O   0  0  0  0  0  0  0  0  0  0  0  0
   10.1574   -0.3960    0.0000 C   0  0  0  0  0  0  0  0  0  0  0  0
   10.1574   -1.2210    0.0000 O   0  0  0  0  0  0  0  0  0  0  0  0
   10.8719    0.0165    0.0000 C   0  0  0  0  0  0  0  0  0  0  0  0
   10.8719    0.8415    0.0000 C   0  0  0  0  0  0  0  0  0  0  0  0
   11.5863    1.2540    0.0000 N   0  0  0  0  0  0  0  0  0  0  0  0
   12.3008    0.8415    0.0000 C   0  0  0  0  0  0  0  0  0  0  0  0
   12.3008    0.0165    0.0000 C   0  0  0  0  0  0  0  0  0  0  0  0
   11.5863   -0.3960    0.0000 C   0  0  0  0  0  0  0  0  0  0  0  0
    6.5850    0.8415    0.0000 O   0  0  0  0  0  0  0  0  0  0  0  0
    3.7272   -0.8085    0.0000 C   0  0  0  0  0  0  0  0  0  0  0  0
    3.0127   -0.3960    0.0000 C   0  0  0  0  0  0  0  0  0  0  0  0
    3.0127    0.4290    0.0000 C   0  0  0  0  0  0  0  0  0  0  0  0
    3.7272    0.8415    0.0000 C   0  0  0  0  0  0  0  0  0  0  0  0
    2.2982    0.8415    0.0000 Cl  0  0  0  0  0  0  0  0  0  0  0  0
   -0.4125    0.0000    0.0000 Cl  0  5  0  0  0  0  0  0  0  0  0  0
  2  3  2  0  0  0  0
  3  4  1  0  0  0  0
  4  5  1  0  0  0  0
  5  6  1  0  0  0  0
  5  7  1  0  0  0  0
  5  8  1  0  0  0  0
  8  9  1  0  0  0  0
  9 10  1  0  0  0  0
 10 11  1  0  0  0  0
 11 12  1  0  0  0  0
 12 13  1  0  0  0  0
 13 14  2  0  0  0  0
 13 15  1  0  0  0  0
 15 16  2  0  0  0  0
 16 17  1  0  0  0  0
 17 18  2  0  0  0  0
 18 19  1  0  0  0  0
 19 20  2  0  0  0  0
 15 20  1  0  0  0  0
  8 21  2  0  0  0  0
  3 22  1  0  0  0  0
 22 23  2  0  0  0  0
 23 24  1  0  0  0  0
 24 25  2  0  0  0  0
  2 25  1  0  0  0  0
 24 26  1  0  0  0  0
M  CHG  2   1   1  27  -1
M  END
>  <Name>
Etofibrate

>  <CAS>
31637-97-5

>  <Formula>
C18H18ClNO5

>  <MolWt>
363.79 

>  <Bioactivity>
Etofibrate is a combination of clofibrate and niacin, used to treat hyperlipemia.

>  <Pathways>
Others

>  <Target>
Others

>  <Receptor>
Others

>  <Reference>
1. Herrera E, et al. Biochim Biophys Acta, 1988, 963(1), 42-52.

$$$$
57-37-4
  Mrv1561503291623562D          

 26 25  0  0  0  0            999 V2000
    0.4125    0.0000    0.0000 H   0  3  0  0  0  0  0  0  0  0  0  0
    2.2982    1.6147    0.0000 C   0  0  0  0  0  0  0  0  0  0  0  0
    3.0127    2.0272    0.0000 C   0  0  0  0  0  0  0  0  0  0  0  0
    3.7272    1.6147    0.0000 C   0  0  0  0  0  0  0  0  0  0  0  0
    3.7272    0.7897    0.0000 C   0  0  0  0  0  0  0  0  0  0  0  0
    3.0127    0.3772    0.0000 C   0  0  0  0  0  0  0  0  0  0  0  0
    2.2982    0.7897    0.0000 C   0  0  0  0  0  0  0  0  0  0  0  0
    4.4416    0.3772    0.0000 C   0  0  0  0  0  0  0  0  0  0  0  0
    4.0291   -0.3372    0.0000 O   0  0  0  0  0  0  0  0  0  0  0  0
    4.8541    1.0917    0.0000 C   0  0  0  0  0  0  0  0  0  0  0  0
    4.4416    1.8062    0.0000 C   0  0  0  0  0  0  0  0  0  0  0  0
    4.8541    2.5206    0.0000 C   0  0  0  0  0  0  0  0  0  0  0  0
    5.6791    2.5206    0.0000 C   0  0  0  0  0  0  0  0  0  0  0  0
    6.0916    1.8062    0.0000 C   0  0  0  0  0  0  0  0  0  0  0  0
    5.6791    1.0917    0.0000 C   0  0  0  0  0  0  0  0  0  0  0  0
    5.1561   -0.0353    0.0000 C   0  0  0  0  0  0  0  0  0  0  0  0
    5.8706    0.3772    0.0000 O   0  0  0  0  0  0  0  0  0  0  0  0
    5.1561   -0.8603    0.0000 O   0  0  0  0  0  0  0  0  0  0  0  0
    5.8706   -1.2728    0.0000 C   0  0  0  0  0  0  0  0  0  0  0  0
    5.8706   -2.0978    0.0000 C   0  0  0  0  0  0  0  0  0  0  0  0
    6.5850   -2.5103    0.0000 N   0  0  0  0  0  0  0  0  0  0  0  0
    6.5850   -3.3353    0.0000 C   0  0  0  0  0  0  0  0  0  0  0  0
    7.2995   -3.7478    0.0000 C   0  0  0  0  0  0  0  0  0  0  0  0
    7.2995   -2.0978    0.0000 C   0  0  0  0  0  0  0  0  0  0  0  0
    8.0140   -2.5103    0.0000 C   0  0  0  0  0  0  0  0  0  0  0  0
   -0.4125    0.0000    0.0000 Cl  0  5  0  0  0  0  0  0  0  0  0  0
  2  3  2  0  0  0  0
  3  4  1  0  0  0  0
  4  5  2  0  0  0  0
  5  6  1  0  0  0  0
  6  7  2  0  0  0  0
  2  7  1  0  0  0  0
  5  8  1  0  0  0  0
  8  9  1  0  0  0  0
  8 10  1  0  0  0  0
 10 11  2  0  0  0  0
 11 12  1  0  0  0  0
 12 13  2  0  0  0  0
 13 14  1  0  0  0  0
 14 15  2  0  0  0  0
 10 15  1  0  0  0  0
  8 16  1  0  0  0  0
 16 17  2  0  0  0  0
 16 18  1  0  0  0  0
 18 19  1  0  0  0  0
 19 20  1  0  0  0  0
 20 21  1  0  0  0  0
 21 22  1  0  0  0  0
 22 23  1  0  0  0  0
 21 24  1  0  0  0  0
 24 25  1  0  0  0  0
M  CHG  2   1   1  26  -1
M  END
>  <Name>
Benactyzine HCl

>  <CAS>
57-37-4

>  <Formula>
C20H26ClNO3

>  <MolWt>
363.88 

>  <Bioactivity>
Benactyzine hydrochloride is a centrally acting muscarinic antagonist. Benactyzine has been used in the treatment of depression and is used in research to investigate the role of cholinergic systems on behavior.

>  <Pathways>
Neuroscience

>  <Target>
AChR antagonist

>  <Receptor>
Muscarinic AChR

>  <Reference>
1. Amitai G, et al. Mol Pharmacol. 1987 Nov;32(5):678-85.

$$$$
82009-34-5
  Mrv1561503291623562D          

 25 24  0  0  1  0            999 V2000
    0.3316    5.7454    0.0000 C   0  0  0  0  0  0  0  0  0  0  0  0
   -0.0809    6.4599    0.0000 C   0  0  0  0  0  0  0  0  0  0  0  0
    0.7441    6.4599    0.0000 C   0  0  0  0  0  0  0  0  0  0  0  0
   -0.9028    6.3880    0.0000 C   0  0  0  0  0  0  0  0  0  0  0  0
   -0.4296    7.2076    0.0000 C   0  0  0  0  0  0  0  0  0  0  0  0
    0.3316    4.9204    0.0000 C   0  0  0  0  0  0  0  0  0  0  0  0
   -0.3829    4.5079    0.0000 O   0  0  0  0  0  0  0  0  0  0  0  0
    1.0461    4.5079    0.0000 N   0  0  0  0  0  0  0  0  0  0  0  0
    1.0461    3.6829    0.0000 C   0  0  0  0  0  0  0  0  0  0  0  0
    0.3316    3.2704    0.0000 C   0  0  0  0  0  0  0  0  0  0  0  0
   -0.3829    3.6829    0.0000 O   0  5  0  0  0  0  0  0  0  0  0  0
    0.3316    2.4454    0.0000 O   0  0  0  0  0  0  0  0  0  0  0  0
    1.7605    3.2704    0.0000 C   0  0  0  0  0  0  0  0  0  0  0  0
    2.4750    3.6829    0.0000 C   0  0  0  0  0  0  0  0  0  0  0  0
    3.1895    3.2704    0.0000 C   0  0  0  0  0  0  0  0  0  0  0  0
    3.9039    3.6829    0.0000 C   0  0  0  0  0  0  0  0  0  0  0  0
    4.6184    3.2704    0.0000 C   0  0  0  0  0  0  0  0  0  0  0  0
    5.3329    3.6829    0.0000 S   0  0  0  0  0  0  0  0  0  0  0  0
    6.0474    3.2704    0.0000 C   0  0  0  0  0  0  0  0  0  0  0  0
    6.7618    3.6829    0.0000 C   0  0  0  0  0  0  0  0  0  0  0  0
    6.7618    4.5079    0.0000 N   0  0  0  0  0  0  0  0  0  0  0  0
    7.4763    3.2704    0.0000 C   0  0  0  0  0  0  0  0  0  0  0  0
    8.1908    3.6829    0.0000 O   0  0  0  0  0  0  0  0  0  0  0  0
    7.4763    2.4454    0.0000 O   0  0  0  0  0  0  0  0  0  0  0  0
   -1.0974    4.0954    0.0000 Na  0  3  0  0  0  0  0  0  0  0  0  0
  1  2  1  0  0  0  0
  2  3  1  0  0  0  0
  1  3  1  0  0  0  0
  2  4  1  0  0  0  0
  2  5  1  0  0  0  0
  1  6  1  0  0  0  0
  6  7  2  0  0  0  0
  6  8  1  0  0  0  0
  8  9  1  0  0  0  0
  9 10  1  0  0  0  0
 10 11  1  0  0  0  0
 10 12  2  0  0  0  0
  9 13  2  0  0  0  0
 13 14  1  0  0  0  0
 14 15  1  0  0  0  0
 15 16  1  0  0  0  0
 16 17  1  0  0  0  0
 17 18  1  0  0  0  0
 18 19  1  0  0  0  0
 19 20  1  0  0  0  0
 20 21  1  0  0  0  0
 20 22  1  0  0  0  0
 22 23  2  0  0  0  0
 22 24  1  0  0  0  0
M  CHG  2  11  -1  25   1
M  END
>  <Name>
Cilastatin

>  <CAS>
82009-34-5

>  <Formula>
C16H26N2O5S

>  <MolWt>
358.45 

>  <Bioactivity>
A renal dehydropeptidase-I and leukotriene D4 dipeptidase inhibitor. Since the antibiotic, IMIPENEM, is hydrolyzed by dehydropeptidase-I, which resides in the brush border of the renal tubule, cilastatin is administered with imipenem to increase its effectiveness. The drug also inhibits the metabolism of leukotriene D4 to leukotriene E4.

>  <Pathways>
Others

>  <Target>
Dipeptidase inhibitor

>  <Receptor>
Dipeptidase 1

>  <Reference>
1. Farrell CA, et al. Arch Biochem Biophys. 1987 Jul;256(1):253-9.

$$$$

  Mrv1561503291623562D          

  0  0  0  0  0  0            999 V2000
M  END
>  <Name>
Pancreatin

>  <CAS>
8049-47-6

>  <Formula>
N/A

>  <MolWt>
N/A

>  <Bioactivity>
Pancreatin is a mixture of several digestive enzymes produced by the exocrine cells of the pancreas. It is composed of amylase, lipase and protease. 

>  <Pathways>
Others

>  <Target>
Others

>  <Receptor>
Others

>  <Reference>
1. Caruso C, et al. J Virol Methods. 2014 Nov;208:79-84. 

$$$$

  Mrv1561503291623562D          

  0  0  0  0  0  0            999 V2000
M  END
>  <Name>
Diastase

>  <CAS>
9000-92-4

>  <Formula>
N/A

>  <MolWt>
N/A

>  <Bioactivity>
A diastase is any one of a group of enzymes which catalyses the breakdown of starch into maltose.

>  <Pathways>
Others

>  <Target>
Others

>  <Receptor>
Starch

>  <Reference>
1. Gray GM. N Engl J Med. 1975 Jun 5;292(23):1225-30.

$$$$
59338-87-3
  Mrv1561503291623562D          

 25 25  0  0  0  0            999 V2000
    0.4125    0.0000    0.0000 H   0  3  0  0  0  0  0  0  0  0  0  0
    4.2822    0.9820    0.0000 C   0  0  0  0  0  0  0  0  0  0  0  0
    4.9967    0.5695    0.0000 C   0  0  0  0  0  0  0  0  0  0  0  0
    5.7112    0.9820    0.0000 C   0  0  0  0  0  0  0  0  0  0  0  0
    5.7112    1.8070    0.0000 O   0  0  0  0  0  0  0  0  0  0  0  0
    6.4256    0.5695    0.0000 N   0  0  0  0  0  0  0  0  0  0  0  0
    6.4256   -0.2555    0.0000 C   0  0  0  0  0  0  0  0  0  0  0  0
    7.1401   -0.6680    0.0000 C   0  0  0  0  0  0  0  0  0  0  0  0
    7.8938   -0.3325    0.0000 N   0  0  0  0  0  0  0  0  0  0  0  0
    8.4458   -0.9456    0.0000 C   0  0  0  0  0  0  0  0  0  0  0  0
    8.0333   -1.6600    0.0000 C   0  0  0  0  0  0  0  0  0  0  0  0
    7.2263   -1.4885    0.0000 C   0  0  0  0  0  0  0  0  0  0  0  0
    8.0653    0.4745    0.0000 C   0  0  0  0  0  0  0  0  0  0  0  0
    8.8499    0.7294    0.0000 C   0  0  0  0  0  0  0  0  0  0  0  0
    9.0215    1.5364    0.0000 C   0  0  0  0  0  0  0  0  0  0  0  0
    4.9967   -0.2555    0.0000 C   0  0  0  0  0  0  0  0  0  0  0  0
    4.2822   -0.6680    0.0000 C   0  0  0  0  0  0  0  0  0  0  0  0
    3.5678   -0.2555    0.0000 C   0  0  0  0  0  0  0  0  0  0  0  0
    2.7831   -0.5105    0.0000 N   0  0  0  0  0  0  0  0  0  0  0  0
    2.2982    0.1570    0.0000 N   0  0  0  0  0  0  0  0  0  0  0  0
    2.7831    0.8244    0.0000 N   0  0  0  0  0  0  0  0  0  0  0  0
    3.5678    0.5695    0.0000 C   0  0  0  0  0  0  0  0  0  0  0  0
    5.7112   -0.6680    0.0000 O   0  0  0  0  0  0  0  0  0  0  0  0
    5.7112   -1.4930    0.0000 C   0  0  0  0  0  0  0  0  0  0  0  0
   -0.4125    0.0000    0.0000 Cl  0  5  0  0  0  0  0  0  0  0  0  0
  2  3  2  0  0  0  0
  3  4  1  0  0  0  0
  4  5  2  0  0  0  0
  4  6  1  0  0  0  0
  6  7  1  0  0  0  0
  7  8  1  0  0  0  0
  8  9  1  0  0  0  0
  9 10  1  0  0  0  0
 10 11  1  0  0  0  0
 11 12  1  0  0  0  0
  8 12  1  0  0  0  0
  9 13  1  0  0  0  0
 13 14  1  0  0  0  0
 14 15  2  0  0  0  0
  3 16  1  0  0  0  0
 16 17  2  0  0  0  0
 17 18  1  0  0  0  0
 18 19  2  0  0  0  0
 19 20  1  0  0  0  0
 20 21  1  0  0  0  0
 21 22  2  0  0  0  0
  2 22  1  0  0  0  0
 18 22  1  0  0  0  0
 16 23  1  0  0  0  0
 23 24  1  0  0  0  0
M  CHG  2   1   1  25  -1
M  END
>  <Name>
Alizapride HCl

>  <CAS>
59338-87-3

>  <Formula>
C16H21N5O2.HCl

>  <MolWt>
351.83 

>  <Bioactivity>
Alizapride HCl is a dopamine receptor antagonist used for the theropy of nausea and vomiting.

>  <Pathways>
Neuroscience

>  <Target>
Dopamine Receptor antagonist

>  <Receptor>
Dopamine receptor

>  <Reference>
1. Aprile S, et al. J Mass Spectro, 2012, 47(6), 737-750.

$$$$
76-43-7
  Mrv1561503291623562D          

 24 27  0  0  1  0            999 V2000
    2.3387    0.7029    0.0000 C   0  0  2  0  0  0  0  0  0  0  0  0
    2.8705    0.0722    0.0000 C   0  0  2  0  0  0  0  0  0  0  0  0
    3.6826    0.2174    0.0000 C   0  0  1  0  0  0  0  0  0  0  0  0
    3.9629    0.9934    0.0000 C   0  0  2  0  0  0  0  0  0  0  0  0
    4.7875    0.9666    0.0000 C   0  0  1  0  0  0  0  0  0  0  0  0
    4.7280    1.7894    0.0000 C   0  0  0  0  0  0  0  0  0  0  0  0
    5.5996    1.1118    0.0000 O   0  0  0  0  0  0  0  0  0  0  0  0
    5.0168    0.1741    0.0000 C   0  0  0  0  0  0  0  0  0  0  0  0
    4.3340   -0.2889    0.0000 C   0  0  0  0  0  0  0  0  0  0  0  0
    4.3228    1.7357    0.0000 C   0  0  0  0  0  0  0  0  0  0  0  0
    3.4311    1.6241    0.0000 C   0  0  0  0  0  0  0  0  0  0  0  0
    2.6190    1.4789    0.0000 C   0  0  2  0  0  0  0  0  0  0  0  0
    2.0872    2.1096    0.0000 O   0  0  0  0  0  0  0  0  0  0  0  0
    2.5902   -0.7037    0.0000 C   0  0  0  0  0  0  0  0  0  0  0  0
    1.7781   -0.8489    0.0000 C   0  0  0  0  0  0  0  0  0  0  0  0
    1.2463   -0.2182    0.0000 C   0  0  0  0  0  0  0  0  0  0  0  0
    0.4342   -0.3634    0.0000 C   0  0  0  0  0  0  0  0  0  0  0  0
   -0.0976    0.2673    0.0000 C   0  0  0  0  0  0  0  0  0  0  0  0
   -0.9098    0.1221    0.0000 O   0  0  0  0  0  0  0  0  0  0  0  0
    0.1827    1.0432    0.0000 C   0  0  0  0  0  0  0  0  0  0  0  0
    0.9948    1.1884    0.0000 C   0  0  0  0  0  0  0  0  0  0  0  0
    1.5266    0.5577    0.0000 C   0  0  2  0  0  0  0  0  0  0  0  0
    1.8069    1.3336    0.0000 C   0  0  0  0  0  0  0  0  0  0  0  0
    2.2792    1.5258    0.0000 F   0  0  0  0  0  0  0  0  0  0  0  0
  1  2  1  0  0  0  0
  2  3  1  0  0  0  0
  3  4  1  0  0  0  0
  4  5  1  0  0  0  0
  5  6  1  6  0  0  0
  5  7  1  1  0  0  0
  5  8  1  0  0  0  0
  8  9  1  0  0  0  0
  3  9  1  1  0  0  0
  4 10  1  1  0  0  0
  4 11  1  0  0  0  0
 11 12  1  0  0  0  0
  1 12  1  0  0  0  0
 12 13  1  1  0  0  0
  2 14  1  6  0  0  0
 14 15  1  0  0  0  0
 15 16  1  0  0  0  0
 16 17  2  0  0  0  0
 17 18  1  0  0  0  0
 18 19  2  0  0  0  0
 18 20  1  0  0  0  0
 20 21  1  0  0  0  0
 21 22  1  0  0  0  0
  1 22  1  0  0  0  0
 16 22  1  0  0  0  0
 22 23  1  1  0  0  0
  1 24  1  6  0  0  0
M  END
>  <Name>
Fluoxymesterone

>  <CAS>
76-43-7

>  <Formula>
C20H29FO3

>  <MolWt>
336.44 

>  <Bioactivity>
Fluoxymesterone is an Androgen. The mechanism of action of fluoxymesterone is as an Androgen Receptor Agonist. The chemical classification of fluoxymesterone is Androstanes.

>  <Pathways>
Endocrinology/ Hormones

>  <Target>
Androgen Receptor Agonist

>  <Receptor>
Androgen Receptor

>  <Reference>
1. Fernandez L, et al. Endocrinology. 1994 Mar;134(3):1401-8. 

$$$$
T2529
  Mrv1561503291623562D          

 23 23  0  0  1  0            999 V2000
    0.7145    1.2375    0.0000 C   0  0  2  0  0  0  0  0  0  0  0  0
    1.4289    0.8250    0.0000 O   0  0  0  0  0  0  0  0  0  0  0  0
    1.4289    0.0000    0.0000 C   0  0  0  0  0  0  0  0  0  0  0  0
    0.7145   -0.4125    0.0000 C   0  0  0  0  0  0  0  0  0  0  0  0
    0.0000   -0.0000    0.0000 C   0  0  2  0  0  0  0  0  0  0  0  0
   -0.7145   -0.4125    0.0000 N   0  0  0  0  0  0  0  0  0  0  0  0
   -0.7145   -1.2375    0.0000 C   0  0  0  0  0  0  0  0  0  0  0  0
   -0.0000   -1.6500    0.0000 N   0  0  0  0  0  0  0  0  0  0  0  0
   -1.4289   -1.6500    0.0000 N   0  0  0  0  0  0  0  0  0  0  0  0
    0.0000    0.8250    0.0000 C   0  0  1  0  0  0  0  0  0  0  0  0
   -0.7145    1.2375    0.0000 N   0  0  0  0  0  0  0  0  0  0  0  0
   -1.4289    0.8250    0.0000 C   0  0  0  0  0  0  0  0  0  0  0  0
   -1.4289   -0.0000    0.0000 O   0  0  0  0  0  0  0  0  0  0  0  0
   -2.1434    1.2375    0.0000 C   0  0  0  0  0  0  0  0  0  0  0  0
    2.1434   -0.4125    0.0000 C   0  0  0  0  0  0  0  0  0  0  0  0
    2.8579    0.0000    0.0000 O   0  0  0  0  0  0  0  0  0  0  0  0
    2.1434   -1.2375    0.0000 O   0  0  0  0  0  0  0  0  0  0  0  0
    0.7145    2.0625    0.0000 C   0  0  2  0  0  0  0  0  0  0  0  0
    1.4289    2.4750    0.0000 O   0  0  0  0  0  0  0  0  0  0  0  0
   -0.0000    2.4750    0.0000 C   0  0  2  0  0  0  0  0  0  0  0  0
   -0.7145    2.0625    0.0000 O   0  0  0  0  0  0  0  0  0  0  0  0
   -0.0000    3.3000    0.0000 C   0  0  0  0  0  0  0  0  0  0  0  0
   -0.7145    3.7125    0.0000 O   0  0  0  0  0  0  0  0  0  0  0  0
  1  2  1  0  0  0  0
  2  3  1  0  0  0  0
  3  4  2  0  0  0  0
  4  5  1  0  0  0  0
  5  6  1  6  0  0  0
  6  7  2  0  0  0  0
  7  8  1  0  0  0  0
  7  9  1  0  0  0  0
  5 10  1  0  0  0  0
  1 10  1  0  0  0  0
 10 11  1  1  0  0  0
 11 12  1  0  0  0  0
 12 13  2  0  0  0  0
 12 14  1  0  0  0  0
  3 15  1  0  0  0  0
 15 16  1  0  0  0  0
 15 17  2  0  0  0  0
  1 18  1  6  0  0  0
 18 19  1  1  0  0  0
 18 20  1  0  0  0  0
 20 21  1  6  0  0  0
 20 22  1  0  0  0  0
 22 23  1  0  0  0  0
M  END
>  <Name>
Zanamivir

>  <CAS>
139110-80-8

>  <Formula>
C12H20N4O7

>  <MolWt>
332.31 

>  <Bioactivity>
Zanamivir is an influenza viral neuraminidase inhibitor that is a structural analog of the sialic acid.

>  <Pathways>
Microbiology & Virology

>  <Target>
Influenza Virus

>  <Receptor>
neuraminidase

>  <Reference>
1. Gubareva LV, et al. J Infect Dis, 1998, 178(6), 1592-1596.

$$$$
122852-69-1
  Mrv1561503291623562D          

 24 25  0  0  0  0            999 V2000
    0.4125    0.0000    0.0000 H   0  3  0  0  0  0  0  0  0  0  0  0
    7.1127    0.0644    0.0000 C   0  0  0  0  0  0  0  0  0  0  0  0
    7.9197   -0.1071    0.0000 C   0  0  0  0  0  0  0  0  0  0  0  0
    8.1746   -0.8917    0.0000 C   0  0  0  0  0  0  0  0  0  0  0  0
    7.6226   -1.5048    0.0000 C   0  0  0  0  0  0  0  0  0  0  0  0
    6.8156   -1.3333    0.0000 C   0  0  0  0  0  0  0  0  0  0  0  0
    6.5607   -0.5486    0.0000 C   0  0  0  0  0  0  0  0  0  0  0  0
    5.7357   -0.5486    0.0000 C   0  0  0  0  0  0  0  0  0  0  0  0
    5.4807   -1.3333    0.0000 C   0  0  0  0  0  0  0  0  0  0  0  0
    6.1482   -1.8182    0.0000 N   0  0  0  0  0  0  0  0  0  0  0  0
    6.1482   -2.6432    0.0000 C   0  0  0  0  0  0  0  0  0  0  0  0
    4.6738   -1.5048    0.0000 C   0  0  0  0  0  0  0  0  0  0  0  0
    4.1217   -0.8917    0.0000 C   0  0  0  0  0  0  0  0  0  0  0  0
    4.3767   -0.1071    0.0000 N   0  0  0  0  0  0  0  0  0  0  0  0
    5.1836    0.0644    0.0000 C   0  0  0  0  0  0  0  0  0  0  0  0
    5.4386    0.8491    0.0000 O   0  0  0  0  0  0  0  0  0  0  0  0
    3.8246    0.5060    0.0000 C   0  0  0  0  0  0  0  0  0  0  0  0
    4.0796    1.2906    0.0000 C   0  0  0  0  0  0  0  0  0  0  0  0
    3.5946    1.9581    0.0000 C   0  0  0  0  0  0  0  0  0  0  0  0
    4.0796    2.6255    0.0000 N   0  0  0  0  0  0  0  0  0  0  0  0
    4.8642    2.3706    0.0000 C   0  0  0  0  0  0  0  0  0  0  0  0
    4.8642    1.5456    0.0000 N   0  0  0  0  0  0  0  0  0  0  0  0
    2.7696    1.9581    0.0000 C   0  0  0  0  0  0  0  0  0  0  0  0
   -0.4125    0.0000    0.0000 Cl  0  5  0  0  0  0  0  0  0  0  0  0
  2  3  2  0  0  0  0
  3  4  1  0  0  0  0
  4  5  2  0  0  0  0
  5  6  1  0  0  0  0
  6  7  2  0  0  0  0
  2  7  1  0  0  0  0
  7  8  1  0  0  0  0
  8  9  2  0  0  0  0
  9 10  1  0  0  0  0
  6 10  1  0  0  0  0
 10 11  1  0  0  0  0
  9 12  1  0  0  0  0
 12 13  1  0  0  0  0
 13 14  1  0  0  0  0
 14 15  1  0  0  0  0
  8 15  1  0  0  0  0
 15 16  2  0  0  0  0
 14 17  1  0  0  0  0
 17 18  1  0  0  0  0
 18 19  2  0  0  0  0
 19 20  1  0  0  0  0
 20 21  1  0  0  0  0
 21 22  2  0  0  0  0
 18 22  1  0  0  0  0
 19 23  1  0  0  0  0
M  CHG  2   1   1  24  -1
M  END
>  <Name>
Alosetron HCl

>  <CAS>
122852-69-1

>  <Formula>
C17H19ClN4O

>  <MolWt>
330.81 

>  <Bioactivity>
Alosetron Hcl is a Serotonin 5HT3-receptor antagonist that is used in treatment of irritable bowel syndrome.

>  <Pathways>
Neuroscience

>  <Target>
5-HT Receptor antagonist

>  <Receptor>
5HT3-receptor 

>  <Reference>
1. Spiller, Robin C. From Current Opinion in Pharmacology (2011), 11(1), 68-74.

$$$$
54048-10-1
  Mrv1561503291623562D          

 24 27  0  0  1  0            999 V2000
    4.7875    0.9666    0.0000 C   0  0  2  0  0  0  0  0  0  0  0  0
    4.7280    1.7894    0.0000 O   0  0  0  0  0  0  0  0  0  0  0  0
    3.9629    0.9934    0.0000 C   0  0  0  0  0  0  0  0  0  0  0  0
    3.6826    0.2174    0.0000 C   0  0  0  0  0  0  0  0  0  0  0  0
    2.8705    0.0722    0.0000 C   0  0  0  0  0  0  0  0  0  0  0  0
    2.3387    0.7029    0.0000 C   0  0  0  0  0  0  0  0  0  0  0  0
    2.6190    1.4789    0.0000 C   0  0  0  0  0  0  0  0  0  0  0  0
    3.4311    1.6241    0.0000 C   0  0  0  0  0  0  0  0  0  0  0  0
    2.0872    2.1096    0.0000 C   0  0  0  0  0  0  0  0  0  0  0  0
    1.5266    0.5577    0.0000 C   0  0  0  0  0  0  0  0  0  0  0  0
    1.2463   -0.2182    0.0000 C   0  0  0  0  0  0  0  0  0  0  0  0
    0.4342   -0.3634    0.0000 C   0  0  0  0  0  0  0  0  0  0  0  0
   -0.0976    0.2673    0.0000 C   0  0  0  0  0  0  0  0  0  0  0  0
   -0.9098    0.1221    0.0000 O   0  0  0  0  0  0  0  0  0  0  0  0
    0.1827    1.0432    0.0000 C   0  0  0  0  0  0  0  0  0  0  0  0
    0.9948    1.1884    0.0000 C   0  0  0  0  0  0  0  0  0  0  0  0
    1.7781   -0.8489    0.0000 C   0  0  0  0  0  0  0  0  0  0  0  0
    2.5902   -0.7037    0.0000 C   0  0  0  0  0  0  0  0  0  0  0  0
    4.3340   -0.2889    0.0000 C   0  0  0  0  0  0  0  0  0  0  0  0
    5.0168    0.1741    0.0000 C   0  0  0  0  0  0  0  0  0  0  0  0
    4.3228    1.7357    0.0000 C   0  0  0  0  0  0  0  0  0  0  0  0
    3.8598    2.4186    0.0000 C   0  0  0  0  0  0  0  0  0  0  0  0
    5.5996    1.1118    0.0000 C   0  0  0  0  0  0  0  0  0  0  0  0
    6.4118    1.2570    0.0000 C   0  0  0  0  0  0  0  0  0  0  0  0
  1  2  1  1  0  0  0
  1  3  1  0  0  0  0
  3  4  1  0  0  0  0
  4  5  1  0  0  0  0
  5  6  1  0  0  0  0
  6  7  1  0  0  0  0
  7  8  1  0  0  0  0
  3  8  1  0  0  0  0
  7  9  2  0  0  0  0
  6 10  1  0  0  0  0
 10 11  1  0  0  0  0
 11 12  2  0  0  0  0
 12 13  1  0  0  0  0
 13 14  2  0  0  0  0
 13 15  1  0  0  0  0
 15 16  1  0  0  0  0
 10 16  1  0  0  0  0
 11 17  1  0  0  0  0
 17 18  1  0  0  0  0
  5 18  1  0  0  0  0
  4 19  1  0  0  0  0
 19 20  1  0  0  0  0
  1 20  1  0  0  0  0
  3 21  1  0  0  0  0
 21 22  1  0  0  0  0
  1 23  1  6  0  0  0
 23 24  3  0  0  0  0
M  END
>  <Name>
Etonogestrel

>  <CAS>
54048-10-1

>  <Formula>
C22H28O2

>  <MolWt>
324.46 

>  <Bioactivity>
Etonogestrel is a steroidal progestin used in hormonal contraceptives.

>  <Pathways>
Endocrinology/ Hormones

>  <Target>
Estrogen/Progestogen Receptor agonist

>  <Receptor>
Estrogen/progestogen Receptor

>  <Reference>
1. McNicholas C, et al. Obstet Gynecol. 2015 Mar;125(3):599-604.

$$$$
T1484L
  Mrv1561503291623562D          

 31 31  0  0  1  0            999 V2000
   -1.2988    0.5834    0.0000 C   0  0  2  0  0  0  0  0  0  0  0  0
   -1.2126   -0.2370    0.0000 N   0  0  0  0  0  0  0  0  0  0  0  0
   -1.9663   -0.5726    0.0000 C   0  0  1  0  0  0  0  0  0  0  0  0
   -2.5183    0.0405    0.0000 C   0  0  0  0  0  0  0  0  0  0  0  0
   -2.1058    0.7550    0.0000 C   0  0  2  0  0  0  0  0  0  0  0  0
   -2.3608    1.5396    0.0000 C   0  0  0  0  0  0  0  0  0  0  0  0
   -1.8087    2.1527    0.0000 C   0  0  0  0  0  0  0  0  0  0  0  0
   -1.0018    1.9812    0.0000 C   0  0  0  0  0  0  0  0  0  0  0  0
   -0.7468    1.1965    0.0000 C   0  0  0  0  0  0  0  0  0  0  0  0
   -2.1378   -1.3796    0.0000 C   0  0  0  0  0  0  0  0  0  0  0  0
   -2.9224   -1.6345    0.0000 O   0  0  0  0  0  0  0  0  0  0  0  0
   -1.5247   -1.9316    0.0000 O   0  0  0  0  0  0  0  0  0  0  0  0
   -0.4981   -0.6495    0.0000 C   0  0  0  0  0  0  0  0  0  0  0  0
   -0.4981   -1.4745    0.0000 O   0  0  0  0  0  0  0  0  0  0  0  0
    0.2163   -0.2370    0.0000 C   0  0  1  0  0  0  0  0  0  0  0  0
    0.9308   -0.6495    0.0000 N   0  0  0  0  0  0  0  0  0  0  0  0
    1.6453   -0.2370    0.0000 C   0  0  2  0  0  0  0  0  0  0  0  0
    2.3597   -0.6495    0.0000 C   0  0  0  0  0  0  0  0  0  0  0  0
    3.0742   -0.2370    0.0000 O   0  0  0  0  0  0  0  0  0  0  0  0
    3.7887   -0.6495    0.0000 C   0  0  0  0  0  0  0  0  0  0  0  0
    4.5032   -0.2370    0.0000 C   0  0  0  0  0  0  0  0  0  0  0  0
    2.3597   -1.4745    0.0000 O   0  0  0  0  0  0  0  0  0  0  0  0
    1.6453    0.5880    0.0000 C   0  0  0  0  0  0  0  0  0  0  0  0
    0.9308    1.0005    0.0000 C   0  0  0  0  0  0  0  0  0  0  0  0
    0.9308    1.8255    0.0000 C   0  0  0  0  0  0  0  0  0  0  0  0
    0.2163    0.5880    0.0000 C   0  0  0  0  0  0  0  0  0  0  0  0
    7.6853   -0.8250    0.0000 C   0  0  0  0  0  0  0  0  0  0  0  0
    7.6853    0.0000    0.0000 C   0  0  0  0  0  0  0  0  0  0  0  0
    7.6853    0.8250    0.0000 N   0  0  0  0  0  0  0  0  0  0  0  0
    8.5103   -0.0000    0.0000 C   0  0  0  0  0  0  0  0  0  0  0  0
    6.8603    0.0000    0.0000 C   0  0  0  0  0  0  0  0  0  0  0  0
  1  2  1  6  0  0  0
  2  3  1  0  0  0  0
  3  4  1  0  0  0  0
  5  4  1  6  0  0  0
  1  5  1  0  0  0  0
  5  6  1  0  0  0  0
  6  7  1  0  0  0  0
  7  8  1  0  0  0  0
  8  9  1  0  0  0  0
  1  9  1  0  0  0  0
  3 10  1  6  0  0  0
 10 11  2  0  0  0  0
 10 12  1  0  0  0  0
  2 13  1  0  0  0  0
 13 14  2  0  0  0  0
 13 15  1  0  0  0  0
 15 16  1  0  0  0  0
 17 16  1  1  0  0  0
 17 18  1  0  0  0  0
 18 19  1  0  0  0  0
 19 20  1  0  0  0  0
 20 21  1  0  0  0  0
 18 22  2  0  0  0  0
 17 23  1  0  0  0  0
 23 24  1  0  0  0  0
 24 25  1  0  0  0  0
 15 26  1  6  0  0  0
 27 28  1  0  0  0  0
 28 29  1  0  0  0  0
 28 30  1  0  0  0  0
 28 31  1  0  0  0  0
M  END
>  <Name>
Perindopril erbumine

>  <CAS>
107133-36-8

>  <Formula>
C23H43N3O5

>  <MolWt>
441.61 

>  <Bioactivity>
PERINDOPRIL ERBUMINE is an angiotensin-converting enzyme inhibitor. It is used in patients with hypertension and heart failure.


>  <Pathways>
Angiogenesis;Endocrinology/ Hormones

>  <Target>
RAAS inhibitor; ACE inhibitor; MRP inhibitor;ChE inhibitor

>  <Receptor>
ACE;MRP1;ChE

>  <Reference>
1. Ceconi C, et al. Eur J Pharmacol, 2007, 577(1-3), 1-6.

$$$$
432-60-0
  Mrv1561503291623562D          

 22 25  0  0  1  0            999 V2000
    3.6826    0.2174    0.0000 C   0  0  1  0  0  0  0  0  0  0  0  0
    3.9629    0.9934    0.0000 C   0  0  1  0  0  0  0  0  0  0  0  0
    4.7875    0.9666    0.0000 C   0  0  1  0  0  0  0  0  0  0  0  0
    5.5996    1.1118    0.0000 C   0  0  0  0  0  0  0  0  0  0  0  0
    6.1315    0.4811    0.0000 C   0  0  0  0  0  0  0  0  0  0  0  0
    6.9436    0.6263    0.0000 C   0  0  0  0  0  0  0  0  0  0  0  0
    4.7280    1.7894    0.0000 O   0  0  0  0  0  0  0  0  0  0  0  0
    5.0168    0.1741    0.0000 C   0  0  0  0  0  0  0  0  0  0  0  0
    4.3340   -0.2889    0.0000 C   0  0  0  0  0  0  0  0  0  0  0  0
    3.4311    1.6241    0.0000 C   0  0  0  0  0  0  0  0  0  0  0  0
    2.6190    1.4789    0.0000 C   0  0  0  0  0  0  0  0  0  0  0  0
    2.3387    0.7029    0.0000 C   0  0  1  0  0  0  0  0  0  0  0  0
    2.8705    0.0722    0.0000 C   0  0  1  0  0  0  0  0  0  0  0  0
    2.5902   -0.7037    0.0000 C   0  0  0  0  0  0  0  0  0  0  0  0
    1.7781   -0.8489    0.0000 C   0  0  0  0  0  0  0  0  0  0  0  0
    1.2463   -0.2182    0.0000 C   0  0  0  0  0  0  0  0  0  0  0  0
    0.4342   -0.3634    0.0000 C   0  0  0  0  0  0  0  0  0  0  0  0
   -0.0976    0.2673    0.0000 C   0  0  0  0  0  0  0  0  0  0  0  0
    0.1827    1.0432    0.0000 C   0  0  0  0  0  0  0  0  0  0  0  0
    0.9948    1.1884    0.0000 C   0  0  0  0  0  0  0  0  0  0  0  0
    1.5266    0.5577    0.0000 C   0  0  2  0  0  0  0  0  0  0  0  0
    4.3228    1.7357    0.0000 C   0  0  0  0  0  0  0  0  0  0  0  0
  1  2  1  0  0  0  0
  2  3  1  0  0  0  0
  3  4  1  6  0  0  0
  4  5  1  0  0  0  0
  5  6  2  0  0  0  0
  3  7  1  1  0  0  0
  3  8  1  0  0  0  0
  8  9  1  0  0  0  0
  1  9  1  1  0  0  0
  2 10  1  0  0  0  0
 10 11  1  0  0  0  0
 12 11  1  1  0  0  0
 12 13  1  0  0  0  0
  1 13  1  0  0  0  0
 13 14  1  6  0  0  0
 14 15  1  0  0  0  0
 15 16  1  0  0  0  0
 16 17  2  0  0  0  0
 17 18  1  0  0  0  0
 18 19  1  0  0  0  0
 19 20  1  0  0  0  0
 20 21  1  0  0  0  0
 12 21  1  0  0  0  0
 21 16  1  6  0  0  0
  2 22  1  1  0  0  0
M  END
>  <Name>
Allylestrenol

>  <CAS>
432-60-0

>  <Formula>
C21H32O

>  <MolWt>
300.48 

>  <Bioactivity>
Allylestrenol is a synthetic steroid with progestational activity.

>  <Pathways>
Endocrinology/ Hormones

>  <Target>
Estrogen/Progestogen Receptor agonist

>  <Receptor>
Estrogen/progestogen Receptor

>  <Reference>
1. Madauss KP, et al. Med Res Rev. 2007 May;27(3):374-400. 

$$$$
99291-25-5
  Mrv1561503291623562D          

 17 18  0  0  1  0            999 V2000
   -0.0000   -0.0000    0.0000 C   0  0  1  0  0  0  0  0  0  0  0  0
    0.7145   -0.4125    0.0000 C   0  0  0  0  0  0  0  0  0  0  0  0
    0.7145   -1.2375    0.0000 N   0  0  0  0  0  0  0  0  0  0  0  0
    1.4289   -1.6500    0.0000 C   0  0  0  0  0  0  0  0  0  0  0  0
    1.4289   -2.4750    0.0000 C   0  0  0  0  0  0  0  0  0  0  0  0
    0.7145   -2.8875    0.0000 N   0  0  0  0  0  0  0  0  0  0  0  0
    0.7145   -3.7125    0.0000 C   0  0  0  0  0  0  0  0  0  0  0  0
    1.4289   -4.1250    0.0000 C   0  0  0  0  0  0  0  0  0  0  0  0
    1.4289   -4.9500    0.0000 C   0  0  0  0  0  0  0  0  0  0  0  0
    0.7145   -5.3625    0.0000 C   0  0  0  0  0  0  0  0  0  0  0  0
   -0.0000   -4.9500    0.0000 C   0  0  0  0  0  0  0  0  0  0  0  0
   -0.0000   -4.1250    0.0000 C   0  0  0  0  0  0  0  0  0  0  0  0
   -0.0000   -2.4750    0.0000 C   0  0  0  0  0  0  0  0  0  0  0  0
   -0.0000   -1.6500    0.0000 C   0  0  0  0  0  0  0  0  0  0  0  0
   -0.0000    0.8250    0.0000 C   0  0  0  0  0  0  0  0  0  0  0  0
   -0.7145    1.2375    0.0000 O   0  0  0  0  0  0  0  0  0  0  0  0
   -0.7145   -0.4125    0.0000 O   0  0  0  0  0  0  0  0  0  0  0  0
  1  2  1  0  0  0  0
  2  3  1  0  0  0  0
  3  4  1  0  0  0  0
  4  5  1  0  0  0  0
  5  6  1  0  0  0  0
  6  7  1  0  0  0  0
  7  8  2  0  0  0  0
  8  9  1  0  0  0  0
  9 10  2  0  0  0  0
 10 11  1  0  0  0  0
 11 12  2  0  0  0  0
  7 12  1  0  0  0  0
  6 13  1  0  0  0  0
 13 14  1  0  0  0  0
  3 14  1  0  0  0  0
  1 15  1  0  0  0  0
 15 16  1  0  0  0  0
  1 17  1  6  0  0  0
M  END
>  <Name>
Levodropropizine

>  <CAS>
99291-25-5

>  <Formula>
C13H20N2O2

>  <MolWt>
236.31 

>  <Bioactivity>
Levodropropizine possess anti-allergic and inhibits histamine receptor, reduces cough by interfering with stimulus activation of peripheral endings of sensory nerves and by modulation of neuropeptides involved in the cough reflex.

>  <Pathways>
Neuroscience

>  <Target>
Histamine Receptor antagonist

>  <Receptor>
Histamine receptor

>  <Reference>
1. Melillo G, et al. Arzneimittelforschung, 1988, 38(8), 1144-1150.

$$$$
621-72-7
  Mrv1561503291623562D          

 18 18  0  0  0  0            999 V2000
    0.4125    0.0000    0.0000 H   0  3  0  0  0  0  0  0  0  0  0  0
    6.7572   -1.3609    0.0000 C   0  0  0  0  0  0  0  0  0  0  0  0
    6.0428   -0.9484    0.0000 C   0  0  0  0  0  0  0  0  0  0  0  0
    5.2581   -1.2033    0.0000 N   0  0  0  0  0  0  0  0  0  0  0  0
    4.7732   -0.5359    0.0000 C   0  0  0  0  0  0  0  0  0  0  0  0
    5.2581    0.1316    0.0000 N   0  0  0  0  0  0  0  0  0  0  0  0
    6.0428   -0.1234    0.0000 C   0  0  0  0  0  0  0  0  0  0  0  0
    6.7572    0.2891    0.0000 C   0  0  0  0  0  0  0  0  0  0  0  0
    7.4717   -0.1234    0.0000 C   0  0  0  0  0  0  0  0  0  0  0  0
    7.4717   -0.9484    0.0000 C   0  0  0  0  0  0  0  0  0  0  0  0
    3.9482   -0.5359    0.0000 C   0  0  0  0  0  0  0  0  0  0  0  0
    3.5357    0.1786    0.0000 C   0  0  0  0  0  0  0  0  0  0  0  0
    2.7107    0.1786    0.0000 C   0  0  0  0  0  0  0  0  0  0  0  0
    2.2982    0.8931    0.0000 C   0  0  0  0  0  0  0  0  0  0  0  0
    2.7107    1.6076    0.0000 C   0  0  0  0  0  0  0  0  0  0  0  0
    3.5357    1.6076    0.0000 C   0  0  0  0  0  0  0  0  0  0  0  0
    3.9482    0.8931    0.0000 C   0  0  0  0  0  0  0  0  0  0  0  0
   -0.4125    0.0000    0.0000 Cl  0  5  0  0  0  0  0  0  0  0  0  0
  2  3  2  0  0  0  0
  3  4  1  0  0  0  0
  4  5  2  0  0  0  0
  5  6  1  0  0  0  0
  6  7  1  0  0  0  0
  3  7  1  0  0  0  0
  7  8  2  0  0  0  0
  8  9  1  0  0  0  0
  9 10  2  0  0  0  0
  2 10  1  0  0  0  0
  5 11  1  0  0  0  0
 11 12  1  0  0  0  0
 12 13  2  0  0  0  0
 13 14  1  0  0  0  0
 14 15  2  0  0  0  0
 15 16  1  0  0  0  0
 16 17  2  0  0  0  0
 12 17  1  0  0  0  0
M  CHG  2   1   1  18  -1
M  END
>  <Name>
Bendazol

>  <CAS>
621-72-7

>  <Formula>
C14H12N2

>  <MolWt>
208.26 

>  <Bioactivity>
N/A

>  <Pathways>
Neuroscience

>  <Target>
Dopamine Receptor antagonist

>  <Receptor>
dopamine receptor 

>  <Reference>
1. Kuzubova EA, et al. Eksp Klin Farmakol. 2007 Mar-Apr;70(2):37-9.

$$$$
T1526
  Mrv1561503291623562D          

 19 20  0  0  0  0            999 V2000
    2.4557   -0.6442    0.0000 C   0  0  0  0  0  0  0  0  0  0  0  0
    3.2807   -0.6442    0.0000 C   0  0  0  0  0  0  0  0  0  0  0  0
    3.5356    0.1404    0.0000 O   0  0  0  0  0  0  0  0  0  0  0  0
    2.8682    0.6253    0.0000 C   0  0  0  0  0  0  0  0  0  0  0  0
    2.2007    0.1404    0.0000 C   0  0  0  0  0  0  0  0  0  0  0  0
    2.8682    1.4503    0.0000 N   0  3  0  0  0  0  0  0  0  0  0  0
    3.5826    1.8628    0.0000 O   0  5  0  0  0  0  0  0  0  0  0  0
    2.1537    1.8628    0.0000 O   0  0  0  0  0  0  0  0  0  0  0  0
    3.7656   -1.3117    0.0000 C   0  0  0  0  0  0  0  0  0  0  0  0
    3.4300   -2.0653    0.0000 N   0  0  0  0  0  0  0  0  0  0  0  0
    2.6095   -2.1516    0.0000 N   0  0  0  0  0  0  0  0  0  0  0  0
    2.1970   -2.8660    0.0000 C   0  0  0  0  0  0  0  0  0  0  0  0
    1.3901   -2.6945    0.0000 O   0  0  0  0  0  0  0  0  0  0  0  0
    1.3038   -1.8740    0.0000 C   0  0  0  0  0  0  0  0  0  0  0  0
    2.0575   -1.5385    0.0000 C   0  0  0  0  0  0  0  0  0  0  0  0
    0.5894   -1.4615    0.0000 C   0  0  0  0  0  0  0  0  0  0  0  0
    0.5894   -0.6365    0.0000 S   0  0  0  0  0  0  0  0  0  0  0  0
    1.3038   -0.2240    0.0000 C   0  0  0  0  0  0  0  0  0  0  0  0
    2.5326   -3.6197    0.0000 O   0  0  0  0  0  0  0  0  0  0  0  0
  1  2  2  0  0  0  0
  2  3  1  0  0  0  0
  3  4  1  0  0  0  0
  4  5  2  0  0  0  0
  1  5  1  0  0  0  0
  4  6  1  0  0  0  0
  6  7  1  0  0  0  0
  6  8  2  0  0  0  0
  2  9  1  0  0  0  0
  9 10  2  0  0  0  0
 10 11  1  0  0  0  0
 11 12  1  0  0  0  0
 12 13  1  0  0  0  0
 13 14  1  0  0  0  0
 14 15  1  0  0  0  0
 11 15  1  0  0  0  0
 14 16  1  0  0  0  0
 16 17  1  0  0  0  0
 17 18  1  0  0  0  0
 12 19  2  0  0  0  0
M  CHG  2   6   1   7  -1
M  END
>  <Name>
Nifuratel

>  <CAS>
4936-47-4

>  <Formula>
C10H11N3O5S

>  <MolWt>
285.28 

>  <Bioactivity>
Nifuratel(NF 113, SAP 113) is a broad antibacterial spectrum agent, which is used as an antibacterial, antifungal, and antiprotozoal (Trichomonas).

>  <Pathways>
Microbiology & Virology

>  <Target>
Antibacterial

>  <Receptor>
Antibacterial

>  <Reference>
1. Polatti F. Curr Clin Pharmacol. 2012 Feb 1;7(1):36-40.

$$$$
6106-81-6
  Mrv1561503291623562D          

 25 26  0  0  1  0            999 V2000
    2.4905   -1.0378    0.0000 C   0  0  0  0  0  0  0  0  0  0  0  0
    3.2050   -0.6253    0.0000 O   0  0  0  0  0  0  0  0  0  0  0  0
    2.4905   -0.2128    0.0000 C   0  0  0  0  0  0  0  0  0  0  0  0
    1.8455    0.3016    0.0000 C   0  0  0  0  0  0  0  0  0  0  0  0
    1.6138   -0.6253    0.0000 N   0  3  0  0  0  0  0  0  0  0  0  0
    0.9353   -1.0947    0.0000 O   0  5  0  0  0  0  0  0  0  0  0  0
    1.8455   -1.5521    0.0000 C   0  0  0  0  0  0  0  0  0  0  0  0
    1.0412   -1.3686    0.0000 C   0  0  0  0  0  0  0  0  0  0  0  0
    0.6832   -0.6253    0.0000 C   0  0  0  0  0  0  0  0  0  0  0  0
   -0.1418   -0.6253    0.0000 O   0  0  0  0  0  0  0  0  0  0  0  0
   -0.5543    0.0892    0.0000 C   0  0  0  0  0  0  0  0  0  0  0  0
   -0.1418    0.8037    0.0000 O   0  0  0  0  0  0  0  0  0  0  0  0
   -1.3793    0.0892    0.0000 C   0  0  0  0  0  0  0  0  0  0  0  0
   -1.7918   -0.6253    0.0000 C   0  0  0  0  0  0  0  0  0  0  0  0
   -2.6168   -0.6253    0.0000 O   0  0  0  0  0  0  0  0  0  0  0  0
   -1.7918    0.8037    0.0000 C   0  0  0  0  0  0  0  0  0  0  0  0
   -2.6168    0.8037    0.0000 C   0  0  0  0  0  0  0  0  0  0  0  0
   -3.0293    1.5181    0.0000 C   0  0  0  0  0  0  0  0  0  0  0  0
   -2.6168    2.2326    0.0000 C   0  0  0  0  0  0  0  0  0  0  0  0
   -1.7918    2.2326    0.0000 C   0  0  0  0  0  0  0  0  0  0  0  0
   -1.3793    1.5181    0.0000 C   0  0  0  0  0  0  0  0  0  0  0  0
    1.0412    0.1180    0.0000 C   0  0  0  0  0  0  0  0  0  0  0  0
    0.9353   -0.1559    0.0000 C   0  0  0  0  0  0  0  0  0  0  0  0
    1.7239   -1.3372    0.0000 H   0  3  0  0  0  0  0  0  0  0  0  0
    5.5621    0.0000    0.0000 Br  0  5  0  0  0  0  0  0  0  0  0  0
  1  2  1  0  0  0  0
  2  3  1  0  0  0  0
  1  3  1  0  0  0  0
  3  4  1  0  0  0  0
  4  5  1  0  0  0  0
  5  6  1  0  0  0  0
  5  7  1  0  0  0  0
  1  7  1  0  0  0  0
  7  8  1  0  0  0  0
  8  9  1  0  0  0  0
  9 10  1  0  0  0  0
 10 11  1  0  0  0  0
 11 12  2  0  0  0  0
 11 13  1  0  0  0  0
 13 14  1  0  0  0  0
 14 15  1  0  0  0  0
 13 16  1  0  0  0  0
 16 17  2  0  0  0  0
 17 18  1  0  0  0  0
 18 19  2  0  0  0  0
 19 20  1  0  0  0  0
 20 21  2  0  0  0  0
 16 21  1  0  0  0  0
  9 22  1  0  0  0  0
  4 22  1  0  0  0  0
  5 23  1  0  0  0  0
M  CHG  4   5   1   6  -1  24   1  25  -1
M  END
>  <Name>
Scopolamine N-oxide HBr

>  <CAS>
6106-81-6

>  <Formula>
C17H21NO5.HBr.H2O

>  <MolWt>
400.26 

>  <Bioactivity>
A muscarinic antagonist used to study binding characteristics of muscarinic cholinergic receptors.

>  <Pathways>
Neuroscience

>  <Target>
AChR antagonist

>  <Receptor>
Muscarinic AChR;Sucrase-isomaltase

>  <Reference>
1. CO TUI, DEBRUILLE C. Am J Pharm Sci Support Public Health. 1945;117:319-26.

$$$$
645-43-2
  Mrv1561503291623562D          

 19 18  0  0  0  0            999 V2000
   -0.4593   -2.3943    0.0000 C   0  0  0  0  0  0  0  0  0  0  0  0
   -1.2215   -2.0786    0.0000 C   0  0  0  0  0  0  0  0  0  0  0  0
   -1.5372   -1.3164    0.0000 C   0  0  0  0  0  0  0  0  0  0  0  0
   -1.2215   -0.5542    0.0000 C   0  0  0  0  0  0  0  0  0  0  0  0
   -0.4593   -0.2385    0.0000 N   0  0  0  0  0  0  0  0  0  0  0  0
    0.3029   -0.5542    0.0000 C   0  0  0  0  0  0  0  0  0  0  0  0
    0.6186   -1.3164    0.0000 C   0  0  0  0  0  0  0  0  0  0  0  0
    0.3029   -2.0786    0.0000 C   0  0  0  0  0  0  0  0  0  0  0  0
   -0.4593    0.5865    0.0000 C   0  0  0  0  0  0  0  0  0  0  0  0
    0.2552    0.9990    0.0000 C   0  0  0  0  0  0  0  0  0  0  0  0
    0.2552    1.8240    0.0000 N   0  0  0  0  0  0  0  0  0  0  0  0
    0.9696    2.2365    0.0000 C   0  0  0  0  0  0  0  0  0  0  0  0
    0.9696    3.0615    0.0000 N   0  0  0  0  0  0  0  0  0  0  0  0
    1.6841    1.8240    0.0000 N   0  0  0  0  0  0  0  0  0  0  0  0
    4.3948   -0.8250    0.0000 O   0  0  0  0  0  0  0  0  0  0  0  0
    4.3948    0.0000    0.0000 S   0  0  0  0  0  0  0  0  0  0  0  0
    4.3948    0.8250    0.0000 O   0  0  0  0  0  0  0  0  0  0  0  0
    5.2198   -0.0000    0.0000 O   0  0  0  0  0  0  0  0  0  0  0  0
    3.5698    0.0000    0.0000 O   0  0  0  0  0  0  0  0  0  0  0  0
  1  2  1  0  0  0  0
  2  3  1  0  0  0  0
  3  4  1  0  0  0  0
  4  5  1  0  0  0  0
  5  6  1  0  0  0  0
  6  7  1  0  0  0  0
  7  8  1  0  0  0  0
  1  8  1  0  0  0  0
  5  9  1  0  0  0  0
  9 10  1  0  0  0  0
 10 11  1  0  0  0  0
 11 12  2  0  0  0  0
 12 13  1  0  0  0  0
 12 14  1  0  0  0  0
 15 16  1  0  0  0  0
 16 17  2  0  0  0  0
 16 18  2  0  0  0  0
 16 19  1  0  0  0  0
M  END
>  <Name>
Guanethidine Monosulfate

>  <CAS>
645-43-2

>  <Formula>
C10H24N4O4S

>  <MolWt>
296.39 

>  <Bioactivity>
Guanethidine is an antihypertensive drug that reduces the release of catecholamines, such as norepinephrine.

>  <Pathways>
Endocrinology/ Hormones

>  <Target>
Norepinephrine inhibitor

>  <Receptor>
norepinephrine

>  <Reference>
1. Fabiani ME, et al. Pharmacol Res. 1996 Mar;33(3):171-80.

$$$$
175591-09-0
  Mrv1561503291623562D          

 17 16  0  0  0  0            999 V2000
   -0.3094    1.8755    0.0000 C   0  0  0  0  0  0  0  0  0  0  0  0
   -0.7219    1.1610    0.0000 C   0  0  0  0  0  0  0  0  0  0  0  0
   -0.3094    0.4465    0.0000 C   0  0  0  0  0  0  0  0  0  0  0  0
   -0.7219   -0.2679    0.0000 C   0  0  0  0  0  0  0  0  0  0  0  0
   -0.3094   -0.9824    0.0000 C   0  0  0  0  0  0  0  0  0  0  0  0
   -0.7219   -1.6969    0.0000 C   0  0  0  0  0  0  0  0  0  0  0  0
   -1.5469   -1.6969    0.0000 C   0  0  0  0  0  0  0  0  0  0  0  0
   -1.9594   -0.9824    0.0000 C   0  0  0  0  0  0  0  0  0  0  0  0
   -1.5469   -0.2679    0.0000 C   0  0  0  0  0  0  0  0  0  0  0  0
   -0.3094   -2.4113    0.0000 O   0  0  0  0  0  0  0  0  0  0  0  0
    0.5156    0.4465    0.0000 C   0  0  0  0  0  0  0  0  0  0  0  0
    0.9281   -0.2679    0.0000 C   0  0  0  0  0  0  0  0  0  0  0  0
    0.9281    1.1610    0.0000 C   0  0  0  0  0  0  0  0  0  0  0  0
    1.7531    1.1610    0.0000 N   0  0  0  0  0  0  0  0  0  0  0  0
    2.1656    1.8755    0.0000 C   0  0  0  0  0  0  0  0  0  0  0  0
    2.1656    0.4465    0.0000 C   0  0  0  0  0  0  0  0  0  0  0  0
    4.1692    0.0000    0.0000 Cl  0  0  0  0  0  0  0  0  0  0  0  0
  1  2  1  0  0  0  0
  2  3  1  0  0  0  0
  3  4  1  0  0  0  0
  4  5  2  0  0  0  0
  5  6  1  0  0  0  0
  6  7  2  0  0  0  0
  7  8  1  0  0  0  0
  8  9  2  0  0  0  0
  4  9  1  0  0  0  0
  6 10  1  0  0  0  0
  3 11  1  0  0  0  0
 11 12  1  0  0  0  0
 11 13  1  0  0  0  0
 13 14  1  0  0  0  0
 14 15  1  0  0  0  0
 14 16  1  0  0  0  0
M  END
>  <Name>
Tapentadol HCl

>  <CAS>
175591-09-0

>  <Formula>
C14H24ClNO

>  <MolWt>
257.80 

>  <Bioactivity>
Tapentadol Hcl is a centrally acting oral analgesic with opioid and adrenergic activity.

>  <Pathways>
GPCR/G Protein; Neuroscience

>  <Target>
Adrenergic Receptor;Opiod receptor

>  <Receptor>
Adrenergic Receptor;Opioid Receptor

>  <Reference>
1. Tzschentke TM, et al. Drugs Today (Barc). 2009 Jul;45(7):483-96.

$$$$
175481-36-4
  Mrv1561503291623562D          

 18 18  0  0  1  0            999 V2000
    1.2375   -0.9355    0.0000 C   0  0  2  0  0  0  0  0  0  0  0  0
    0.4125   -0.9355    0.0000 C   0  0  0  0  0  0  0  0  0  0  0  0
   -0.0000   -1.6500    0.0000 N   0  0  0  0  0  0  0  0  0  0  0  0
   -0.8250   -1.6500    0.0000 C   0  0  0  0  0  0  0  0  0  0  0  0
   -1.2375   -2.3645    0.0000 C   0  0  0  0  0  0  0  0  0  0  0  0
   -0.8250   -3.0789    0.0000 C   0  0  0  0  0  0  0  0  0  0  0  0
   -1.2375   -3.7934    0.0000 C   0  0  0  0  0  0  0  0  0  0  0  0
   -2.0625   -3.7934    0.0000 C   0  0  0  0  0  0  0  0  0  0  0  0
   -2.4750   -3.0789    0.0000 C   0  0  0  0  0  0  0  0  0  0  0  0
   -2.0625   -2.3645    0.0000 C   0  0  0  0  0  0  0  0  0  0  0  0
   -0.0000   -0.2211    0.0000 O   0  0  0  0  0  0  0  0  0  0  0  0
    1.6500   -0.2211    0.0000 N   0  0  0  0  0  0  0  0  0  0  0  0
    2.4750   -0.2211    0.0000 C   0  0  0  0  0  0  0  0  0  0  0  0
    2.8875    0.4934    0.0000 O   0  0  0  0  0  0  0  0  0  0  0  0
    2.8875   -0.9355    0.0000 C   0  0  0  0  0  0  0  0  0  0  0  0
    1.6500   -1.6500    0.0000 C   0  0  0  0  0  0  0  0  0  0  0  0
    2.4750   -1.6500    0.0000 O   0  0  0  0  0  0  0  0  0  0  0  0
    2.8875   -2.3645    0.0000 C   0  0  0  0  0  0  0  0  0  0  0  0
  1  2  1  0  0  0  0
  2  3  1  0  0  0  0
  3  4  1  0  0  0  0
  4  5  1  0  0  0  0
  5  6  2  0  0  0  0
  6  7  1  0  0  0  0
  7  8  2  0  0  0  0
  8  9  1  0  0  0  0
  9 10  2  0  0  0  0
  5 10  1  0  0  0  0
  2 11  2  0  0  0  0
  1 12  1  6  0  0  0
 12 13  1  0  0  0  0
 13 14  2  0  0  0  0
 13 15  1  0  0  0  0
  1 16  1  0  0  0  0
 16 17  1  0  0  0  0
 17 18  1  0  0  0  0
M  END
>  <Name>
Lacosamide

>  <CAS>
175481-36-4

>  <Formula>
C13H18N2O3

>  <MolWt>
250.29 

>  <Bioactivity>
Lacosamide (Vimpat; Erlosamide) is a medication developed for the adjunctive treatment of partial-onset seizures and diabetic neuropathic pain.

>  <Pathways>
Others

>  <Target>
Others

>  <Receptor>
Others

>  <Reference>
1. Bang SR, et al. Pharmacol Biochem Behav. 2015 Jul;134:65-9. 

$$$$
96847-55-1
  Mrv1561503291623562D          

 18 19  0  0  0  0            999 V2000
   -1.7351   -0.5711    0.0000 C   0  0  0  0  0  0  0  0  0  0  0  0
   -0.9599   -0.2889    0.0000 C   0  0  0  0  0  0  0  0  0  0  0  0
   -0.3279   -0.8192    0.0000 N   0  0  0  0  0  0  0  0  0  0  0  0
   -0.4711   -1.6317    0.0000 C   0  0  0  0  0  0  0  0  0  0  0  0
   -1.2464   -1.9139    0.0000 C   0  0  0  0  0  0  0  0  0  0  0  0
    0.4474   -0.5371    0.0000 C   0  0  0  0  0  0  0  0  0  0  0  0
    0.5906    0.2754    0.0000 O   0  0  0  0  0  0  0  0  0  0  0  0
    1.0793   -1.0674    0.0000 C   0  0  0  0  0  0  0  0  0  0  0  0
    1.4918   -1.7818    0.0000 C   0  0  0  0  0  0  0  0  0  0  0  0
    0.6668   -1.7818    0.0000 C   0  0  0  0  0  0  0  0  0  0  0  0
   -0.0476   -2.1943    0.0000 C   0  0  0  0  0  0  0  0  0  0  0  0
   -0.0476   -3.0193    0.0000 N   0  0  0  0  0  0  0  0  0  0  0  0
    1.7113   -0.5371    0.0000 C   0  0  0  0  0  0  0  0  0  0  0  0
    1.5681    0.2754    0.0000 C   0  0  0  0  0  0  0  0  0  0  0  0
    2.2001    0.8057    0.0000 C   0  0  0  0  0  0  0  0  0  0  0  0
    2.9753    0.5235    0.0000 C   0  0  0  0  0  0  0  0  0  0  0  0
    3.1186   -0.2889    0.0000 C   0  0  0  0  0  0  0  0  0  0  0  0
    2.4866   -0.8192    0.0000 C   0  0  0  0  0  0  0  0  0  0  0  0
  1  2  1  0  0  0  0
  2  3  1  0  0  0  0
  3  4  1  0  0  0  0
  4  5  1  0  0  0  0
  3  6  1  0  0  0  0
  6  7  2  0  0  0  0
  6  8  1  0  0  0  0
  8  9  1  0  0  0  0
  9 10  1  0  0  0  0
  8 10  1  0  0  0  0
 10 11  1  0  0  0  0
 11 12  1  0  0  0  0
  8 13  1  0  0  0  0
 13 14  2  0  0  0  0
 14 15  1  0  0  0  0
 15 16  2  0  0  0  0
 16 17  1  0  0  0  0
 17 18  2  0  0  0  0
 13 18  1  0  0  0  0
M  END
>  <Name>
Levomilnacipran

>  <CAS>
96847-55-1

>  <Formula>
C15H22N2O

>  <MolWt>
246.34 

>  <Bioactivity>
Levomilnacipran is a selective serotonin and norepinephrine reuptake inhibitor. Chemically, levomilnacipran is the 1S,2R-enantiomer of milnacipran.

>  <Pathways>
Neuroscience

>  <Target>
Serotonin-norepinephrine reuptake inhibitor

>  <Receptor>
serotonin-norepinephrine reuptake 

>  <Reference>
1. Leo RJ, Brooks VL. Curr Opin Investig Drugs. 2006 Jul;7(7):637-42. 

$$$$
117976-90-6
  Mrv1561503291623562D          

 26 27  0  0  0  0            999 V2000
   -2.6798    0.3125    0.0000 N   0  5  0  0  0  0  0  0  0  0  0  0
   -1.9261   -0.0230    0.0000 C   0  0  0  0  0  0  0  0  0  0  0  0
   -2.0123   -0.8435    0.0000 N   0  0  0  0  0  0  0  0  0  0  0  0
   -2.8193   -1.0150    0.0000 C   0  0  0  0  0  0  0  0  0  0  0  0
   -3.2318   -1.7295    0.0000 C   0  0  0  0  0  0  0  0  0  0  0  0
   -4.0568   -1.7295    0.0000 C   0  0  0  0  0  0  0  0  0  0  0  0
   -4.4693   -1.0150    0.0000 C   0  0  0  0  0  0  0  0  0  0  0  0
   -4.0568   -0.3006    0.0000 C   0  0  0  0  0  0  0  0  0  0  0  0
   -3.2318   -0.3006    0.0000 C   0  0  0  0  0  0  0  0  0  0  0  0
   -1.2116    0.3895    0.0000 S   0  0  0  0  0  0  0  0  0  0  0  0
   -1.2116    1.2145    0.0000 O   0  0  0  0  0  0  0  0  0  0  0  0
   -0.4971   -0.0230    0.0000 C   0  0  0  0  0  0  0  0  0  0  0  0
    0.2173    0.3895    0.0000 C   0  0  0  0  0  0  0  0  0  0  0  0
    0.2173    1.2145    0.0000 N   0  0  0  0  0  0  0  0  0  0  0  0
    0.9318    1.6270    0.0000 C   0  0  0  0  0  0  0  0  0  0  0  0
    1.6463    1.2145    0.0000 C   0  0  0  0  0  0  0  0  0  0  0  0
    1.6463    0.3895    0.0000 C   0  0  0  0  0  0  0  0  0  0  0  0
    0.9318   -0.0230    0.0000 C   0  0  0  0  0  0  0  0  0  0  0  0
    0.9318   -0.8480    0.0000 C   0  0  0  0  0  0  0  0  0  0  0  0
    2.3607   -0.0230    0.0000 O   0  0  0  0  0  0  0  0  0  0  0  0
    3.0752    0.3895    0.0000 C   0  0  0  0  0  0  0  0  0  0  0  0
    3.7897   -0.0230    0.0000 C   0  0  0  0  0  0  0  0  0  0  0  0
    4.5042    0.3895    0.0000 C   0  0  0  0  0  0  0  0  0  0  0  0
    5.2186   -0.0230    0.0000 O   0  0  0  0  0  0  0  0  0  0  0  0
    5.9331    0.3895    0.0000 C   0  0  0  0  0  0  0  0  0  0  0  0
    8.2902    0.0000    0.0000 Na  0  3  0  0  0  0  0  0  0  0  0  0
  1  2  1  0  0  0  0
  2  3  2  0  0  0  0
  3  4  1  0  0  0  0
  4  5  2  0  0  0  0
  5  6  1  0  0  0  0
  6  7  2  0  0  0  0
  7  8  1  0  0  0  0
  8  9  2  0  0  0  0
  1  9  1  0  0  0  0
  4  9  1  0  0  0  0
  2 10  1  0  0  0  0
 10 11  2  0  0  0  0
 10 12  1  0  0  0  0
 12 13  1  0  0  0  0
 13 14  2  0  0  0  0
 14 15  1  0  0  0  0
 15 16  2  0  0  0  0
 16 17  1  0  0  0  0
 17 18  2  0  0  0  0
 13 18  1  0  0  0  0
 18 19  1  0  0  0  0
 17 20  1  0  0  0  0
 20 21  1  0  0  0  0
 21 22  1  0  0  0  0
 22 23  1  0  0  0  0
 23 24  1  0  0  0  0
 24 25  1  0  0  0  0
M  CHG  2   1  -1  26   1
M  END
>  <Name>
Rebeprazole sodium

>  <CAS>
117976-90-6

>  <Formula>
C18H20N3NaO3S

>  <MolWt>
381.42 

>  <Bioactivity>
Rebeprazole sodium is a proton pump inhibitor.

>  <Pathways>
Membrane Transporter/Ion Channel

>  <Target>
Proton Pump inhibitor

>  <Receptor>
Proton Pump

>  <Reference>
1. Caos A, et al. Am J Gastroenterol. 2000 Nov;95(11):3081-8.

$$$$
113-38-2
  Mrv1561503291623562D          

 28 31  0  0  1  0            999 V2000
    0.7475   -2.9779    0.0000 C   0  0  1  0  0  0  0  0  0  0  0  0
    1.5596   -2.8327    0.0000 C   0  0  1  0  0  0  0  0  0  0  0  0
    2.0914   -3.4634    0.0000 C   0  0  1  0  0  0  0  0  0  0  0  0
    2.9035   -3.3182    0.0000 C   0  0  0  0  0  0  0  0  0  0  0  0
    3.1838   -2.5422    0.0000 C   0  0  0  0  0  0  0  0  0  0  0  0
    3.9960   -2.3970    0.0000 C   0  0  0  0  0  0  0  0  0  0  0  0
    4.5278   -3.0277    0.0000 C   0  0  0  0  0  0  0  0  0  0  0  0
    5.3399   -2.8825    0.0000 O   0  0  0  0  0  0  0  0  0  0  0  0
    5.8717   -3.5132    0.0000 C   0  0  0  0  0  0  0  0  0  0  0  0
    6.6838   -3.3680    0.0000 C   0  0  0  0  0  0  0  0  0  0  0  0
    7.2157   -3.9987    0.0000 C   0  0  0  0  0  0  0  0  0  0  0  0
    5.5914   -4.2891    0.0000 O   0  0  0  0  0  0  0  0  0  0  0  0
    4.2475   -3.8037    0.0000 C   0  0  0  0  0  0  0  0  0  0  0  0
    3.4354   -3.9489    0.0000 C   0  0  0  0  0  0  0  0  0  0  0  0
    2.6520   -1.9115    0.0000 C   0  0  0  0  0  0  0  0  0  0  0  0
    1.8399   -2.0567    0.0000 C   0  0  0  0  0  0  0  0  0  0  0  0
    1.8111   -4.2393    0.0000 C   0  0  0  0  0  0  0  0  0  0  0  0
    0.9990   -4.3845    0.0000 C   0  0  0  0  0  0  0  0  0  0  0  0
    0.4672   -3.7538    0.0000 C   0  0  2  0  0  0  0  0  0  0  0  0
   -0.3574   -3.7270    0.0000 C   0  0  1  0  0  0  0  0  0  0  0  0
   -0.8637   -4.3783    0.0000 O   0  0  0  0  0  0  0  0  0  0  0  0
   -0.5528   -5.1425    0.0000 C   0  0  0  0  0  0  0  0  0  0  0  0
   -1.0592   -5.7938    0.0000 C   0  0  0  0  0  0  0  0  0  0  0  0
   -1.8764   -5.6810    0.0000 C   0  0  0  0  0  0  0  0  0  0  0  0
    0.2644   -5.2554    0.0000 O   0  0  0  0  0  0  0  0  0  0  0  0
   -0.5867   -2.9345    0.0000 C   0  0  0  0  0  0  0  0  0  0  0  0
    0.0962   -2.4715    0.0000 C   0  0  0  0  0  0  0  0  0  0  0  0
    0.1073   -4.4962    0.0000 C   0  0  0  0  0  0  0  0  0  0  0  0
  1  2  1  0  0  0  0
  2  3  1  0  0  0  0
  3  4  1  0  0  0  0
  4  5  2  0  0  0  0
  5  6  1  0  0  0  0
  6  7  2  0  0  0  0
  7  8  1  0  0  0  0
  8  9  1  0  0  0  0
  9 10  1  0  0  0  0
 10 11  1  0  0  0  0
  9 12  2  0  0  0  0
  7 13  1  0  0  0  0
 13 14  2  0  0  0  0
  4 14  1  0  0  0  0
  5 15  1  0  0  0  0
 15 16  1  0  0  0  0
  2 16  1  6  0  0  0
  3 17  1  1  0  0  0
 17 18  1  0  0  0  0
 18 19  1  0  0  0  0
  1 19  1  0  0  0  0
 19 20  1  0  0  0  0
 20 21  1  1  0  0  0
 21 22  1  0  0  0  0
 22 23  1  0  0  0  0
 23 24  1  0  0  0  0
 22 25  2  0  0  0  0
 20 26  1  0  0  0  0
 26 27  1  0  0  0  0
  1 27  1  1  0  0  0
 19 28  1  1  0  0  0
M  END
>  <Name>
17-Beta-Estradiol-3,17-Dipropionate

>  <CAS>
113-38-2

>  <Formula>
C24H32O4

>  <MolWt>
384.52 

>  <Bioactivity>
Estradiol dipropionate is a synthetic ester, specifically the 3,17-dipropanoyl ester, of the natural estrogen, estradiol.

>  <Pathways>
Endocrinology/ Hormones

>  <Target>
Estrogen/Progestogen Receptor agonist

>  <Receptor>
estrogen receptor

>  <Reference>
1. Noguchi M, et al.
J Vet Med Sci. 2013; 75(3):343-8.

$$$$
5080-50-2
  Mrv1561503291623562D          

 16 13  0  0  0  0            999 V2000
    2.0482    1.2375    0.0000 H   0  3  0  0  0  0  0  0  0  0  0  0
   -0.8097   -0.4125    0.0000 C   0  0  0  0  0  0  0  0  0  0  0  0
   -0.8097   -1.2375    0.0000 N   0  3  0  0  0  0  0  0  0  0  0  0
   -0.8097   -2.0625    0.0000 C   0  0  0  0  0  0  0  0  0  0  0  0
    0.0153   -1.2375    0.0000 C   0  0  0  0  0  0  0  0  0  0  0  0
   -1.6347   -1.2375    0.0000 C   0  0  0  0  0  0  0  0  0  0  0  0
   -0.0953   -0.0000    0.0000 C   0  0  0  0  0  0  0  0  0  0  0  0
   -0.0953    0.8250    0.0000 O   0  0  0  0  0  0  0  0  0  0  0  0
   -0.8097    1.2375    0.0000 C   0  0  0  0  0  0  0  0  0  0  0  0
   -0.8097    2.0625    0.0000 O   0  0  0  0  0  0  0  0  0  0  0  0
   -1.5242    0.8250    0.0000 C   0  0  0  0  0  0  0  0  0  0  0  0
    0.6192   -0.4125    0.0000 C   0  0  0  0  0  0  0  0  0  0  0  0
    1.3337   -0.0000    0.0000 C   0  0  0  0  0  0  0  0  0  0  0  0
    1.3337    0.8250    0.0000 O   0  5  0  0  0  0  0  0  0  0  0  0
    2.0482   -0.4125    0.0000 O   0  0  0  0  0  0  0  0  0  0  0  0
    4.4053    0.0000    0.0000 Cl  0  5  0  0  0  0  0  0  0  0  0  0
  2  3  1  0  0  0  0
  3  4  1  0  0  0  0
  3  5  1  0  0  0  0
  3  6  1  0  0  0  0
  2  7  1  0  0  0  0
  7  8  1  0  0  0  0
  8  9  1  0  0  0  0
  9 10  2  0  0  0  0
  9 11  1  0  0  0  0
  7 12  1  0  0  0  0
 12 13  1  0  0  0  0
 13 14  1  0  0  0  0
 13 15  2  0  0  0  0
M  CHG  4   1   1   3   1  14  -1  16  -1
M  END
>  <Name>
O-Acetyl-L-carnitine HCl

>  <CAS>
5080-50-2

>  <Formula>
C9H18ClNO4

>  <MolWt>
239.70 

>  <Bioactivity>
O-Acetyl-L-carnitine hydrochloride is an acetic acid ester of CARNITINE that facilitates movement of ACETYL COA into the matrices of mammalian MITOCHONDRIA during the oxidation of FATTY ACIDS.

>  <Pathways>
Metabolism

>  <Target>
CART

>  <Receptor>
CRAT

>  <Reference>
N/A

$$$$
106308-44-5
  Mrv1561503291623562D          

 17 18  0  0  0  0            999 V2000
    2.7041   -1.7840    0.0000 C   0  0  0  0  0  0  0  0  0  0  0  0
    2.4492   -2.5687    0.0000 C   0  0  0  0  0  0  0  0  0  0  0  0
    2.9341   -3.2361    0.0000 C   0  0  0  0  0  0  0  0  0  0  0  0
    2.5986   -3.9898    0.0000 N   0  0  0  0  0  0  0  0  0  0  0  0
    3.7546   -3.1499    0.0000 O   0  0  0  0  0  0  0  0  0  0  0  0
    1.6242   -2.5687    0.0000 N   0  0  0  0  0  0  0  0  0  0  0  0
    1.3693   -1.7840    0.0000 N   0  0  0  0  0  0  0  0  0  0  0  0
    2.0367   -1.2991    0.0000 N   0  0  0  0  0  0  0  0  0  0  0  0
    2.0367   -0.4741    0.0000 C   0  0  0  0  0  0  0  0  0  0  0  0
    2.7512   -0.0616    0.0000 C   0  0  0  0  0  0  0  0  0  0  0  0
    2.7512    0.7634    0.0000 C   0  0  0  0  0  0  0  0  0  0  0  0
    3.4656    1.1759    0.0000 C   0  0  0  0  0  0  0  0  0  0  0  0
    4.1801    0.7634    0.0000 C   0  0  0  0  0  0  0  0  0  0  0  0
    4.1801   -0.0616    0.0000 C   0  0  0  0  0  0  0  0  0  0  0  0
    3.4656   -0.4741    0.0000 C   0  0  0  0  0  0  0  0  0  0  0  0
    3.4656   -1.2991    0.0000 F   0  0  0  0  0  0  0  0  0  0  0  0
    2.0367    1.1759    0.0000 F   0  0  0  0  0  0  0  0  0  0  0  0
  1  2  2  0  0  0  0
  2  3  1  0  0  0  0
  3  4  1  0  0  0  0
  3  5  2  0  0  0  0
  2  6  1  0  0  0  0
  6  7  2  0  0  0  0
  7  8  1  0  0  0  0
  1  8  1  0  0  0  0
  8  9  1  0  0  0  0
  9 10  1  0  0  0  0
 10 11  2  0  0  0  0
 11 12  1  0  0  0  0
 12 13  2  0  0  0  0
 13 14  1  0  0  0  0
 14 15  2  0  0  0  0
 10 15  1  0  0  0  0
 15 16  1  0  0  0  0
 11 17  1  0  0  0  0
M  END
>  <Name>
Rufinamide

>  <CAS>
106308-44-5

>  <Formula>
C10H8F2N4O

>  <MolWt>
238.19 

>  <Bioactivity>
Rufinamide is a voltage-gated sodium channel blocker, used an anticonvulsant medication.

>  <Pathways>
Membrane Transporter/Ion Channel

>  <Target>
Sodium Channel inhibitor

>  <Receptor>
Sodium Channel

>  <Reference>
1. Wright HM, et al. J Vet Pharmacol Ther,?012, 35(6), 529-533.

$$$$
T2578
  Mrv1561503291623562D          

 17 19  0  0  1  0            999 V2000
   -0.3984   -2.1500    0.0000 C   0  0  2  0  0  0  0  0  0  0  0  0
   -0.1435   -1.3654    0.0000 N   0  0  0  0  0  0  0  0  0  0  0  0
    0.6411   -1.1104    0.0000 C   0  0  0  0  0  0  0  0  0  0  0  0
    0.6411   -0.2854    0.0000 C   0  0  0  0  0  0  0  0  0  0  0  0
    1.3556    0.1271    0.0000 C   0  0  0  0  0  0  0  0  0  0  0  0
    1.3556    0.9521    0.0000 O   0  0  0  0  0  0  0  0  0  0  0  0
    2.0701   -0.2854    0.0000 N   0  0  0  0  0  0  0  0  0  0  0  0
    2.0701   -1.1104    0.0000 C   0  0  0  0  0  0  0  0  0  0  0  0
    1.3556   -1.5229    0.0000 N   0  0  0  0  0  0  0  0  0  0  0  0
   -0.1435   -0.0305    0.0000 N   0  0  0  0  0  0  0  0  0  0  0  0
   -0.6284   -0.6979    0.0000 C   0  0  0  0  0  0  0  0  0  0  0  0
    0.0865   -2.8174    0.0000 O   0  0  0  0  0  0  0  0  0  0  0  0
   -0.3984   -3.4849    0.0000 C   0  0  1  0  0  0  0  0  0  0  0  0
   -1.1831   -3.2299    0.0000 C   0  0  0  0  0  0  0  0  0  0  0  0
   -1.1831   -2.4049    0.0000 C   0  0  0  0  0  0  0  0  0  0  0  0
   -0.1435   -4.2695    0.0000 C   0  0  0  0  0  0  0  0  0  0  0  0
    0.6635   -4.4410    0.0000 O   0  0  0  0  0  0  0  0  0  0  0  0
  1  2  1  6  0  0  0
  2  3  1  0  0  0  0
  3  4  2  0  0  0  0
  4  5  1  0  0  0  0
  5  6  2  0  0  0  0
  5  7  1  0  0  0  0
  7  8  2  0  0  0  0
  8  9  1  0  0  0  0
  3  9  1  0  0  0  0
  4 10  1  0  0  0  0
 10 11  2  0  0  0  0
  2 11  1  0  0  0  0
  1 12  1  0  0  0  0
 12 13  1  0  0  0  0
 13 14  1  0  0  0  0
 14 15  1  0  0  0  0
  1 15  1  0  0  0  0
 13 16  1  6  0  0  0
 16 17  1  0  0  0  0
M  END
>  <Name>
Didanosine 

>  <CAS>
69655-05-6

>  <Formula>
C10H12N4O3

>  <MolWt>
236.23 

>  <Bioactivity>
Didanosine is a reverse transcriptase inhibitor with an IC50 of 0.49 ?M.

>  <Pathways>
DNA Damage/DNA Repair;Microbiology & Virology

>  <Target>
Reverse Transcriptase inhibitor

>  <Receptor>
Reverse Transcriptase

>  <Reference>
1. Benbrik E, et al. J Neurol Sci, 1997, 149(1), 19-25.

$$$$
96020-91-6
  Mrv1561503291623562D          

 15 11  0  0  0  0            999 V2000
    0.4125    0.0000    0.0000 H   0  3  0  0  0  0  0  0  0  0  0  0
    2.7696   -1.4849    0.0000 C   0  0  0  0  0  0  0  0  0  0  0  0
    2.7696   -2.3099    0.0000 N   0  0  0  0  0  0  0  0  0  0  0  0
    3.4841   -1.0724    0.0000 C   0  0  0  0  0  0  0  0  0  0  0  0
    3.4841   -0.2474    0.0000 C   0  0  0  0  0  0  0  0  0  0  0  0
    4.1986    0.1651    0.0000 C   0  0  0  0  0  0  0  0  0  0  0  0
    4.6111   -0.5493    0.0000 N   0  0  0  0  0  0  0  0  0  0  0  0
    4.9131    0.5776    0.0000 C   0  0  0  0  0  0  0  0  0  0  0  0
    4.9131    1.4026    0.0000 F   0  0  0  0  0  0  0  0  0  0  0  0
    5.6275    0.1651    0.0000 F   0  0  0  0  0  0  0  0  0  0  0  0
    3.7861    0.8796    0.0000 C   0  0  0  0  0  0  0  0  0  0  0  0
    4.1986    1.5941    0.0000 O   0  0  0  0  0  0  0  0  0  0  0  0
    2.9611    0.8796    0.0000 O   0  0  0  0  0  0  0  0  0  0  0  0
   -0.4125    0.0000    0.0000 Cl  0  5  0  0  0  0  0  0  0  0  0  0
    0.0000   -3.9599    0.0000 O   0  0  0  0  0  0  0  0  0  0  0  0
  2  3  1  0  0  0  0
  2  4  1  0  0  0  0
  4  5  1  0  0  0  0
  5  6  1  0  0  0  0
  6  7  1  0  0  0  0
  6  8  1  0  0  0  0
  8  9  1  0  0  0  0
  8 10  1  0  0  0  0
  6 11  1  0  0  0  0
 11 12  1  0  0  0  0
 11 13  2  0  0  0  0
M  CHG  2   1   1  14  -1
M  END
>  <Name>
Eflornithine HCl Monohydrate

>  <CAS>
96020-91-6

>  <Formula>
C6H15ClF2N2O3

>  <MolWt>
236.64 

>  <Bioactivity>
Eflornithine hydrochloride, hydrate (DFMO; MDL-71782) is a drug found to be effective in the treatment of facial hirsutism.

>  <Pathways>
Others

>  <Target>
Others

>  <Receptor>
Others

>  <Reference>
1. Mohammed A, et al. Cancer Prev Res (Phila). 2014 Dec;7(12):1198-209. 

$$$$
382-45-6
  Mrv1561503291623562D          

 22 25  0  0  1  0            999 V2000
    2.0914    1.8134    0.0000 C   0  0  2  0  0  0  0  0  0  0  0  0
    2.9035    1.6682    0.0000 C   0  0  2  0  0  0  0  0  0  0  0  0
    3.1838    0.8922    0.0000 C   0  0  0  0  0  0  0  0  0  0  0  0
    3.9960    0.7470    0.0000 C   0  0  0  0  0  0  0  0  0  0  0  0
    4.5278    1.3777    0.0000 C   0  0  0  0  0  0  0  0  0  0  0  0
    5.3399    1.2325    0.0000 O   0  0  0  0  0  0  0  0  0  0  0  0
    4.2475    2.1537    0.0000 C   0  0  0  0  0  0  0  0  0  0  0  0
    3.4354    2.2989    0.0000 C   0  0  0  0  0  0  0  0  0  0  0  0
    2.6520    0.2615    0.0000 C   0  0  0  0  0  0  0  0  0  0  0  0
    1.8399    0.4067    0.0000 C   0  0  0  0  0  0  0  0  0  0  0  0
    1.5596    1.1827    0.0000 C   0  0  1  0  0  0  0  0  0  0  0  0
    0.7475    1.3279    0.0000 C   0  0  1  0  0  0  0  0  0  0  0  0
    0.4672    2.1038    0.0000 C   0  0  2  0  0  0  0  0  0  0  0  0
   -0.3574    2.0770    0.0000 C   0  0  0  0  0  0  0  0  0  0  0  0
   -0.8637    2.7283    0.0000 O   0  0  0  0  0  0  0  0  0  0  0  0
   -0.5867    1.2845    0.0000 C   0  0  0  0  0  0  0  0  0  0  0  0
    0.0962    0.8215    0.0000 C   0  0  0  0  0  0  0  0  0  0  0  0
    0.1073    2.8462    0.0000 C   0  0  0  0  0  0  0  0  0  0  0  0
    0.9990    2.7345    0.0000 C   0  0  0  0  0  0  0  0  0  0  0  0
    1.8111    2.5893    0.0000 C   0  0  0  0  0  0  0  0  0  0  0  0
    2.3429    3.2200    0.0000 O   0  0  0  0  0  0  0  0  0  0  0  0
    2.6232    2.4441    0.0000 C   0  0  0  0  0  0  0  0  0  0  0  0
  1  2  1  0  0  0  0
  2  3  1  0  0  0  0
  3  4  2  0  0  0  0
  4  5  1  0  0  0  0
  5  6  2  0  0  0  0
  5  7  1  0  0  0  0
  7  8  1  0  0  0  0
  2  8  1  0  0  0  0
  3  9  1  0  0  0  0
  9 10  1  0  0  0  0
 11 10  1  1  0  0  0
  1 11  1  0  0  0  0
 11 12  1  0  0  0  0
 12 13  1  0  0  0  0
 13 14  1  0  0  0  0
 14 15  2  0  0  0  0
 14 16  1  0  0  0  0
 16 17  1  0  0  0  0
 12 17  1  6  0  0  0
 13 18  1  6  0  0  0
 13 19  1  0  0  0  0
 19 20  1  0  0  0  0
  1 20  1  6  0  0  0
 20 21  2  0  0  0  0
  2 22  1  6  0  0  0
M  END
>  <Name>
Adrenosterone

>  <CAS>
382-45-6

>  <Formula>
C19H24O3

>  <MolWt>
300.40 

>  <Bioactivity>
Adrenosterone is a steroid hormone with weak androgenic effect. It was first isolated in 1936 from the adrenal cortex by Tadeus Reichstein at the Pharmaceutical Institute in the University of Basel. Originally, adrenosterone was called Reichstein's substance G. Adrenosterone occurs in trace amounts in humans as well as most mammals and in larger amounts in fish, where it is a precursor to the primary androgen, 11-ketotestosterone.

>  <Pathways>
Endocrinology/ Hormones

>  <Target>
Androgen Receptor antagonist

>  <Receptor>
androgenic receptor

>  <Reference>
1. Blasco M, et al. J Chromatogr B Analyt Technol Biomed Life Sci. 2009 May 15;877(14-15):1509-15. 

$$$$
52-67-5
  Mrv1561503291623562D          

  9  8  0  0  1  0            999 V2000
    0.8250    0.0000    0.0000 C   0  0  2  0  0  0  0  0  0  0  0  0
    1.2375   -0.7145    0.0000 C   0  0  0  0  0  0  0  0  0  0  0  0
    1.6500   -1.4289    0.0000 C   0  0  0  0  0  0  0  0  0  0  0  0
    1.9520   -0.3020    0.0000 C   0  0  0  0  0  0  0  0  0  0  0  0
    0.5230   -1.1270    0.0000 S   0  0  0  0  0  0  0  0  0  0  0  0
    1.2375    0.7145    0.0000 C   0  0  0  0  0  0  0  0  0  0  0  0
    0.8250    1.4289    0.0000 O   0  0  0  0  0  0  0  0  0  0  0  0
    2.0625    0.7145    0.0000 O   0  0  0  0  0  0  0  0  0  0  0  0
    0.0000    0.0000    0.0000 N   0  0  0  0  0  0  0  0  0  0  0  0
  1  2  1  0  0  0  0
  2  3  1  0  0  0  0
  2  4  1  0  0  0  0
  2  5  1  0  0  0  0
  1  6  1  0  0  0  0
  6  7  1  0  0  0  0
  6  8  2  0  0  0  0
  1  9  1  1  0  0  0
M  END
>  <Name>
Artamine

>  <CAS>
52-67-5

>  <Formula>
C5H11NO2S

>  <MolWt>
149.21 

>  <Bioactivity>
3-Mercapto-D-valine. The most characteristic degradation product of the penicillin antibiotics. It is used as an antirheumatic and as a chelating agent in Wilson's disease.


>  <Pathways>
Others

>  <Target>
Chelator

>  <Receptor>
Copper

>  <Reference>
1. Brewer GJ. Expert Opin Pharmacother. 2006 Feb;7(3):317-24.

$$$$
T0718
  Mrv1561503291623562D          

 19 20  0  0  1  0            999 V2000
    0.7145   -1.2375    0.0000 C   0  0  2  0  0  0  0  0  0  0  0  0
    0.7145   -0.4125    0.0000 N   0  0  0  0  0  0  0  0  0  0  0  0
   -0.0000   -0.0000    0.0000 C   0  0  0  0  0  0  0  0  0  0  0  0
   -0.0000    0.8250    0.0000 N   0  0  0  0  0  0  0  0  0  0  0  0
    0.7145    1.2375    0.0000 C   0  0  0  0  0  0  0  0  0  0  0  0
    0.7145    2.0625    0.0000 O   0  0  0  0  0  0  0  0  0  0  0  0
    1.4289    0.8250    0.0000 C   0  0  0  0  0  0  0  0  0  0  0  0
    1.4289   -0.0000    0.0000 C   0  0  0  0  0  0  0  0  0  0  0  0
    2.1434    1.2375    0.0000 C   0  0  0  0  0  0  0  0  0  0  0  0
    2.8579    0.8250    0.0000 C   0  0  0  0  0  0  0  0  0  0  0  0
    3.5724    1.2375    0.0000 Br  0  0  0  0  0  0  0  0  0  0  0  0
   -0.7145   -0.4125    0.0000 O   0  0  0  0  0  0  0  0  0  0  0  0
    1.3819   -1.7224    0.0000 O   0  0  0  0  0  0  0  0  0  0  0  0
    1.1270   -2.5070    0.0000 C   0  0  2  0  0  0  0  0  0  0  0  0
    1.6119   -3.1745    0.0000 C   0  0  0  0  0  0  0  0  0  0  0  0
    2.4324   -3.0882    0.0000 O   0  0  0  0  0  0  0  0  0  0  0  0
    0.3020   -2.5070    0.0000 C   0  0  2  0  0  0  0  0  0  0  0  0
    0.0470   -1.7224    0.0000 C   0  0  0  0  0  0  0  0  0  0  0  0
   -0.1830   -3.1745    0.0000 O   0  0  0  0  0  0  0  0  0  0  0  0
  1  2  1  6  0  0  0
  2  3  1  0  0  0  0
  3  4  1  0  0  0  0
  4  5  1  0  0  0  0
  5  6  2  0  0  0  0
  5  7  1  0  0  0  0
  7  8  2  0  0  0  0
  2  8  1  0  0  0  0
  7  9  1  0  0  0  0
  9 10  2  0  0  0  0
 10 11  1  0  0  0  0
  3 12  2  0  0  0  0
  1 13  1  0  0  0  0
 13 14  1  0  0  0  0
 14 15  1  6  0  0  0
 15 16  1  0  0  0  0
 14 17  1  0  0  0  0
 17 18  1  0  0  0  0
  1 18  1  0  0  0  0
 17 19  1  1  0  0  0
M  END
>  <Name>
Brivudine

>  <CAS>
69304-47-8

>  <Formula>
C11H13BrN2O5

>  <MolWt>
333.14 

>  <Bioactivity>
Brivudine is an antiviral drug used in the treatment of herpes zoster.

>  <Pathways>
Microbiology & Virology

>  <Target>
Antiviral

>  <Receptor>
HSV-1,VZV

>  <Reference>
1. Wilhelmus KR. Cochrane Database Syst Rev. 2010 Dec 8;(12):CD002898.

$$$$
55079-83-9
  Mrv1561503291623562D          

 24 24  0  0  0  0            999 V2000
    1.4289    0.8250    0.0000 C   0  0  0  0  0  0  0  0  0  0  0  0
    1.4289    0.0000    0.0000 C   0  0  0  0  0  0  0  0  0  0  0  0
    0.7145   -0.4125    0.0000 C   0  0  0  0  0  0  0  0  0  0  0  0
   -0.0000    0.0000    0.0000 C   0  0  0  0  0  0  0  0  0  0  0  0
   -0.0000    0.8250    0.0000 C   0  0  0  0  0  0  0  0  0  0  0  0
    0.7145    1.2375    0.0000 C   0  0  0  0  0  0  0  0  0  0  0  0
    0.7145    2.0625    0.0000 C   0  0  0  0  0  0  0  0  0  0  0  0
   -0.7145    1.2375    0.0000 C   0  0  0  0  0  0  0  0  0  0  0  0
   -0.7145    2.0625    0.0000 C   0  0  0  0  0  0  0  0  0  0  0  0
   -1.4289    2.4750    0.0000 C   0  0  0  0  0  0  0  0  0  0  0  0
   -1.4289    3.3000    0.0000 C   0  0  0  0  0  0  0  0  0  0  0  0
   -2.1434    3.7125    0.0000 C   0  0  0  0  0  0  0  0  0  0  0  0
   -2.1434    4.5375    0.0000 C   0  0  0  0  0  0  0  0  0  0  0  0
   -2.8579    4.9500    0.0000 C   0  0  0  0  0  0  0  0  0  0  0  0
   -2.8579    5.7750    0.0000 C   0  0  0  0  0  0  0  0  0  0  0  0
   -3.5724    6.1875    0.0000 C   0  0  0  0  0  0  0  0  0  0  0  0
   -3.5724    7.0125    0.0000 O   0  0  0  0  0  0  0  0  0  0  0  0
   -4.2868    5.7750    0.0000 O   0  0  0  0  0  0  0  0  0  0  0  0
   -3.5724    4.5375    0.0000 C   0  0  0  0  0  0  0  0  0  0  0  0
   -2.1434    2.0625    0.0000 C   0  0  0  0  0  0  0  0  0  0  0  0
   -0.7145   -0.4125    0.0000 C   0  0  0  0  0  0  0  0  0  0  0  0
    0.7145   -1.2375    0.0000 C   0  0  0  0  0  0  0  0  0  0  0  0
    2.1434   -0.4125    0.0000 O   0  0  0  0  0  0  0  0  0  0  0  0
    2.8579    0.0000    0.0000 C   0  0  0  0  0  0  0  0  0  0  0  0
  1  2  2  0  0  0  0
  2  3  1  0  0  0  0
  3  4  2  0  0  0  0
  4  5  1  0  0  0  0
  5  6  2  0  0  0  0
  1  6  1  0  0  0  0
  6  7  1  0  0  0  0
  5  8  1  0  0  0  0
  8  9  2  0  0  0  0
  9 10  1  0  0  0  0
 10 11  2  0  0  0  0
 11 12  1  0  0  0  0
 12 13  2  0  0  0  0
 13 14  1  0  0  0  0
 14 15  2  0  0  0  0
 15 16  1  0  0  0  0
 16 17  1  0  0  0  0
 16 18  2  0  0  0  0
 14 19  1  0  0  0  0
 10 20  1  0  0  0  0
  4 21  1  0  0  0  0
  3 22  1  0  0  0  0
  2 23  1  0  0  0  0
 23 24  1  0  0  0  0
M  END
>  <Name>
Acitretin

>  <CAS>
55079-83-9

>  <Formula>
C21H26O3

>  <MolWt>
326.43 

>  <Bioactivity>
An oral retinoid effective in the treatment of psoriasis. It is the major metabolite of ETRETINATE with the advantage of a much shorter half-life when compared with etretinate. 

>  <Pathways>
Metabolism

>  <Target>
RXR/RAR inhibitor

>  <Receptor>
RAR, RXR

>  <Reference>
1. Orfanos CE, et al. Drugs. 1997 Mar;53(3):358-88. 

$$$$
304-55-2
  Mrv1561503291623562D          

 10  9  0  0  0  0            999 V2000
   -0.1914    0.7145    0.0000 O   0  0  0  0  0  0  0  0  0  0  0  0
    0.5230    1.1270    0.0000 C   0  0  0  0  0  0  0  0  0  0  0  0
    1.2375    0.7145    0.0000 C   0  0  0  0  0  0  0  0  0  0  0  0
    1.9520    1.1270    0.0000 C   0  0  0  0  0  0  0  0  0  0  0  0
    2.6664    0.7145    0.0000 C   0  0  0  0  0  0  0  0  0  0  0  0
    3.3809    1.1270    0.0000 O   0  0  0  0  0  0  0  0  0  0  0  0
    2.6664   -0.1105    0.0000 O   0  0  0  0  0  0  0  0  0  0  0  0
    1.9520    1.9520    0.0000 S   0  0  0  0  0  0  0  0  0  0  0  0
    1.2375   -0.1105    0.0000 S   0  0  0  0  0  0  0  0  0  0  0  0
    0.5230    1.9520    0.0000 O   0  0  0  0  0  0  0  0  0  0  0  0
  1  2  2  0  0  0  0
  2  3  1  0  0  0  0
  3  4  1  0  0  0  0
  4  5  1  0  0  0  0
  5  6  1  0  0  0  0
  5  7  2  0  0  0  0
  4  8  1  0  0  0  0
  3  9  1  0  0  0  0
  2 10  1  0  0  0  0
M  END
>  <Name>
Succimer

>  <CAS>
304-55-2

>  <Formula>
C4H6O4S2

>  <MolWt>
182.22 

>  <Bioactivity>
Succimer is a Lead Chelator. The mechanism of action of succimer is as a Lead Chelating Activity.

>  <Pathways>
Others

>  <Target>
Chelator

>  <Receptor>
Arsenic,Lead,Mercury,Cadmium

>  <Reference>
1. Blanusa M, et al. Curr Med Chem. 2005;12(23):2771-94.

$$$$
T1721
  Mrv1561503291623562D          

 16 17  0  0  0  0            999 V2000
    0.7145   -0.4125    0.0000 C   0  0  0  0  0  0  0  0  0  0  0  0
    0.7145   -1.2375    0.0000 C   0  0  0  0  0  0  0  0  0  0  0  0
    1.3819   -1.7224    0.0000 O   0  0  0  0  0  0  0  0  0  0  0  0
    1.1270   -2.5070    0.0000 C   0  0  0  0  0  0  0  0  0  0  0  0
    1.6119   -3.1745    0.0000 N   0  0  0  0  0  0  0  0  0  0  0  0
    2.4324   -3.0882    0.0000 C   0  0  0  0  0  0  0  0  0  0  0  0
    2.9173   -3.7557    0.0000 N   0  0  0  0  0  0  0  0  0  0  0  0
    2.5817   -4.5094    0.0000 C   0  0  0  0  0  0  0  0  0  0  0  0
    3.0667   -5.1768    0.0000 O   0  0  0  0  0  0  0  0  0  0  0  0
    1.7613   -4.5956    0.0000 C   0  0  0  0  0  0  0  0  0  0  0  0
    1.2763   -3.9282    0.0000 C   0  0  0  0  0  0  0  0  0  0  0  0
    2.7679   -2.3346    0.0000 O   0  0  0  0  0  0  0  0  0  0  0  0
    0.3020   -2.5070    0.0000 C   0  0  0  0  0  0  0  0  0  0  0  0
    0.0470   -1.7224    0.0000 C   0  0  0  0  0  0  0  0  0  0  0  0
   -0.7376   -1.4675    0.0000 O   0  0  0  0  0  0  0  0  0  0  0  0
   -0.0000    0.0000    0.0000 O   0  0  0  0  0  0  0  0  0  0  0  0
  1  2  1  0  0  0  0
  2  3  1  0  0  0  0
  3  4  1  0  0  0  0
  4  5  1  0  0  0  0
  5  6  1  0  0  0  0
  6  7  1  0  0  0  0
  7  8  1  0  0  0  0
  8  9  2  0  0  0  0
  8 10  1  0  0  0  0
 10 11  2  0  0  0  0
  5 11  1  0  0  0  0
  6 12  2  0  0  0  0
  4 13  1  0  0  0  0
 13 14  1  0  0  0  0
  2 14  1  0  0  0  0
 14 15  1  0  0  0  0
  1 16  1  0  0  0  0
M  END
>  <Name>
2'-Deoxyuridine

>  <CAS>
951-78-0

>  <Formula>
C9H12N2O5

>  <MolWt>
228.20 

>  <Bioactivity>
2'-Deoxyuridine. An antimetabolite that is converted to deoxyuridine triphosphate during DNA synthesis. Laboratory suppression of deoxyuridine is used to diagnose megaloblastic anemias due to vitamin B12 and folate deficiencies. 

>  <Pathways>
DNA Damage/DNA Repair; Enzyme

>  <Target>
DNA Synthesis inhibitor;Phosphorylase

>  <Receptor>
Thymidylate synthase;Upp

>  <Reference>
1. Honeywell RJ, et al. Int J Biochem Cell Biol. 2015 Mar;60:73-81. 

$$$$
50847-11-5
  Mrv1561503291623562D          

 17 18  0  0  0  0            999 V2000
   -1.8659    0.0165    0.0000 C   0  0  0  0  0  0  0  0  0  0  0  0
   -1.4534   -0.6979    0.0000 C   0  0  0  0  0  0  0  0  0  0  0  0
   -0.6284   -0.6979    0.0000 C   0  0  0  0  0  0  0  0  0  0  0  0
   -0.1435   -1.3654    0.0000 N   0  0  0  0  0  0  0  0  0  0  0  0
    0.6411   -1.1104    0.0000 N   0  0  0  0  0  0  0  0  0  0  0  0
    0.6411   -0.2854    0.0000 C   0  0  0  0  0  0  0  0  0  0  0  0
   -0.1435   -0.0305    0.0000 C   0  0  0  0  0  0  0  0  0  0  0  0
   -0.3984    0.7541    0.0000 C   0  0  0  0  0  0  0  0  0  0  0  0
    0.1536    1.3672    0.0000 C   0  0  0  0  0  0  0  0  0  0  0  0
    0.9606    1.1957    0.0000 C   0  0  0  0  0  0  0  0  0  0  0  0
   -0.1014    2.1518    0.0000 C   0  0  0  0  0  0  0  0  0  0  0  0
   -1.2054    0.9256    0.0000 O   0  0  0  0  0  0  0  0  0  0  0  0
    1.3556    0.1271    0.0000 C   0  0  0  0  0  0  0  0  0  0  0  0
    2.0701   -0.2854    0.0000 C   0  0  0  0  0  0  0  0  0  0  0  0
    2.0701   -1.1104    0.0000 C   0  0  0  0  0  0  0  0  0  0  0  0
    1.3556   -1.5229    0.0000 C   0  0  0  0  0  0  0  0  0  0  0  0
   -1.8659   -1.4124    0.0000 C   0  0  0  0  0  0  0  0  0  0  0  0
  1  2  1  0  0  0  0
  2  3  1  0  0  0  0
  3  4  2  0  0  0  0
  4  5  1  0  0  0  0
  5  6  1  0  0  0  0
  6  7  2  0  0  0  0
  3  7  1  0  0  0  0
  7  8  1  0  0  0  0
  8  9  1  0  0  0  0
  9 10  1  0  0  0  0
  9 11  1  0  0  0  0
  8 12  2  0  0  0  0
  6 13  1  0  0  0  0
 13 14  2  0  0  0  0
 14 15  1  0  0  0  0
 15 16  2  0  0  0  0
  5 16  1  0  0  0  0
  2 17  1  0  0  0  0
M  END
>  <Name>
Ibudilast

>  <CAS>
50847-11-5

>  <Formula>
C14H18N2O

>  <MolWt>
230.51 

>  <Bioactivity>
Ibudilast is an anti-inflammatory and neuroprotective oral agent which shows an excellent safety profile at 60 mg/day and provides significantly prolonged time-to-first relapse and attenuated brain volume shrinkage in patients with relapsing-remitting (RR) and/or secondary progressive (SP) multiple sclerosis (MS). Ibudilast is currently in development in the U.S. (codes: AV-411 or MN-166), but is approved for use as an antiinflammatory in Japan. 

>  <Pathways>
Metabolism

>  <Target>
PDE inhibitor

>  <Receptor>
PDE

>  <Reference>
1. Yamazaki T, et al. Eur J Pharmacol. 2010 Oct 29. 

$$$$
26171-23-3
  Mrv1561503291623562D          

 20 20  0  0  0  0            999 V2000
   -0.1953   -2.5687    0.0000 C   0  0  0  0  0  0  0  0  0  0  0  0
   -1.0203   -2.5687    0.0000 C   0  0  0  0  0  0  0  0  0  0  0  0
   -1.2752   -1.7840    0.0000 N   0  0  0  0  0  0  0  0  0  0  0  0
   -0.6078   -1.2991    0.0000 C   0  0  0  0  0  0  0  0  0  0  0  0
    0.0597   -1.7840    0.0000 C   0  0  0  0  0  0  0  0  0  0  0  0
   -0.6078   -0.4741    0.0000 C   0  0  0  0  0  0  0  0  0  0  0  0
    0.1067   -0.0616    0.0000 C   0  0  0  0  0  0  0  0  0  0  0  0
    0.1067    0.7634    0.0000 O   0  5  0  0  0  0  0  0  0  0  0  0
    0.8212   -0.4741    0.0000 O   0  0  0  0  0  0  0  0  0  0  0  0
   -2.0598   -1.5291    0.0000 C   0  0  0  0  0  0  0  0  0  0  0  0
   -1.5052   -3.2361    0.0000 C   0  0  0  0  0  0  0  0  0  0  0  0
   -2.3257   -3.1499    0.0000 O   0  0  0  0  0  0  0  0  0  0  0  0
   -1.1696   -3.9898    0.0000 C   0  0  0  0  0  0  0  0  0  0  0  0
   -0.3491   -4.0760    0.0000 C   0  0  0  0  0  0  0  0  0  0  0  0
   -0.0136   -4.8297    0.0000 C   0  0  0  0  0  0  0  0  0  0  0  0
   -0.4985   -5.4971    0.0000 C   0  0  0  0  0  0  0  0  0  0  0  0
   -1.3190   -5.4109    0.0000 C   0  0  0  0  0  0  0  0  0  0  0  0
   -1.6546   -4.6572    0.0000 C   0  0  0  0  0  0  0  0  0  0  0  0
   -0.1630   -6.2508    0.0000 C   0  0  0  0  0  0  0  0  0  0  0  0
    0.1067    1.5884    0.0000 Na  0  3  0  0  0  0  0  0  0  0  0  0
  1  2  2  0  0  0  0
  2  3  1  0  0  0  0
  3  4  1  0  0  0  0
  4  5  2  0  0  0  0
  1  5  1  0  0  0  0
  4  6  1  0  0  0  0
  6  7  1  0  0  0  0
  7  8  1  0  0  0  0
  7  9  2  0  0  0  0
  3 10  1  0  0  0  0
  2 11  1  0  0  0  0
 11 12  2  0  0  0  0
 11 13  1  0  0  0  0
 13 14  2  0  0  0  0
 14 15  1  0  0  0  0
 15 16  2  0  0  0  0
 16 17  1  0  0  0  0
 17 18  2  0  0  0  0
 13 18  1  0  0  0  0
 16 19  1  0  0  0  0
M  CHG  2   8  -1  20   1
M  END
>  <Name>
Tolmetin

>  <CAS>
26171-23-3

>  <Formula>
C15H15NO3

>  <MolWt>
257.28 

>  <Bioactivity>
Tolmetin is a Nonsteroidal Anti-inflammatory Drug. The mechanism of action of tolmetin is as a Cyclooxygenase Inhibitor. The chemical classification of tolmetin is Nonsteroidal Anti-inflammatory Compounds

>  <Pathways>
Neuroscience

>  <Target>
COX inhibitor

>  <Receptor>
COX-1,COX-2

>  <Reference>
1. Burdan F, et al. Pharmacol Res. 2004 Nov;50(5):533-43. 

$$$$
130693-82-2
  Mrv1561503291623562D          

 21 20  0  0  1  0            999 V2000
    1.4611   -0.5631    0.0000 C   0  0  0  0  0  0  0  0  0  0  0  0
    0.7466   -0.9756    0.0000 S   0  0  0  0  0  0  0  0  0  0  0  0
    1.2769   -1.6076    0.0000 O   0  0  0  0  0  0  0  0  0  0  0  0
    0.2163   -1.6076    0.0000 O   0  0  0  0  0  0  0  0  0  0  0  0
    0.0321   -0.5631    0.0000 C   0  0  0  0  0  0  0  0  0  0  0  0
    0.0321    0.2619    0.0000 C   0  0  0  0  0  0  0  0  0  0  0  0
    0.7466    0.6744    0.0000 C   0  0  0  0  0  0  0  0  0  0  0  0
    0.7466    1.4994    0.0000 N   0  0  0  0  0  0  0  0  0  0  0  0
    1.4611    1.9119    0.0000 C   0  0  0  0  0  0  0  0  0  0  0  0
    1.4611    2.7369    0.0000 C   0  0  0  0  0  0  0  0  0  0  0  0
    1.4611    0.2619    0.0000 C   0  0  0  0  0  0  0  0  0  0  0  0
   -0.7525    0.5169    0.0000 C   0  0  0  0  0  0  0  0  0  0  0  0
   -1.2374   -0.1506    0.0000 C   0  0  0  0  0  0  0  0  0  0  0  0
   -0.7525   -0.8180    0.0000 S   0  0  0  0  0  0  0  0  0  0  0  0
   -2.0624   -0.1506    0.0000 S   0  0  0  0  0  0  0  0  0  0  0  0
   -2.8874   -0.1506    0.0000 O   0  0  0  0  0  0  0  0  0  0  0  0
   -2.0624    0.6744    0.0000 O   0  0  0  0  0  0  0  0  0  0  0  0
   -2.0624   -0.9756    0.0000 N   0  0  0  0  0  0  0  0  0  0  0  0
    2.1755   -0.9756    0.0000 C   0  0  0  0  0  0  0  0  0  0  0  0
    5.3577    0.0000    0.0000 H   0  3  0  0  0  0  0  0  0  0  0  0
    4.5327    0.0000    0.0000 Cl  0  5  0  0  0  0  0  0  0  0  0  0
  1  2  1  0  0  0  0
  2  3  2  0  0  0  0
  2  4  2  0  0  0  0
  2  5  1  0  0  0  0
  5  6  2  0  0  0  0
  6  7  1  0  0  0  0
  7  8  1  0  0  0  0
  8  9  1  0  0  0  0
  9 10  1  0  0  0  0
  7 11  1  0  0  0  0
  1 11  1  0  0  0  0
  6 12  1  0  0  0  0
 12 13  2  0  0  0  0
 13 14  1  0  0  0  0
  5 14  1  0  0  0  0
 13 15  1  0  0  0  0
 15 16  2  0  0  0  0
 15 17  2  0  0  0  0
 15 18  1  0  0  0  0
  1 19  1  0  0  0  0
M  CHG  2  20   1  21  -1
M  END
>  <Name>
Dorzolamide HCl

>  <CAS>
130693-82-2

>  <Formula>
C10H17ClN2O4S3

>  <MolWt>
360.90 

>  <Bioactivity>
Dorzolamide is a carbonic anhydrase (CA) inhibitor. It is used in ophthalmic solutions (Trusopt) to lower intraocular pressure (IOP) in open-angle glaucoma and ocular hypertension. 

>  <Pathways>
Metabolism

>  <Target>
Carbonic anhydrase inhibitor

>  <Receptor>
CA1,2,4

>  <Reference>
1. Maren TH, et al. J Ocul Pharmacol Ther, 1997, 13(1), 23-30.

$$$$
7081-53-0
  Mrv1561503291623562D          

 31 31  0  0  0  0            999 V2000
    0.4125    0.0000    0.0000 H   0  3  0  0  0  0  0  0  0  0  0  0
    5.9983   -0.9361    0.0000 C   0  0  0  0  0  0  0  0  0  0  0  0
    6.7829   -0.6812    0.0000 N   0  0  0  0  0  0  0  0  0  0  0  0
    6.9545    0.1258    0.0000 C   0  0  0  0  0  0  0  0  0  0  0  0
    7.7391    0.3807    0.0000 C   0  0  0  0  0  0  0  0  0  0  0  0
    8.3522   -0.1713    0.0000 O   0  0  0  0  0  0  0  0  0  0  0  0
    8.1807   -0.9783    0.0000 C   0  0  0  0  0  0  0  0  0  0  0  0
    7.3960   -1.2332    0.0000 C   0  0  0  0  0  0  0  0  0  0  0  0
    5.3852   -0.3841    0.0000 C   0  0  0  0  0  0  0  0  0  0  0  0
    4.6006   -0.6390    0.0000 C   0  0  0  0  0  0  0  0  0  0  0  0
    3.9332   -0.1541    0.0000 C   0  0  0  0  0  0  0  0  0  0  0  0
    3.2657   -0.6390    0.0000 C   0  0  0  0  0  0  0  0  0  0  0  0
    2.4811   -0.3841    0.0000 O   0  0  0  0  0  0  0  0  0  0  0  0
    3.5207   -1.4236    0.0000 N   0  0  0  0  0  0  0  0  0  0  0  0
    3.0357   -2.0911    0.0000 C   0  0  0  0  0  0  0  0  0  0  0  0
    3.3713   -2.8448    0.0000 C   0  0  0  0  0  0  0  0  0  0  0  0
    4.3457   -1.4236    0.0000 C   0  0  0  0  0  0  0  0  0  0  0  0
    4.5404    0.4043    0.0000 C   0  0  0  0  0  0  0  0  0  0  0  0
    4.3605    1.2095    0.0000 C   0  0  0  0  0  0  0  0  0  0  0  0
    4.9678    1.7679    0.0000 C   0  0  0  0  0  0  0  0  0  0  0  0
    5.7550    1.5212    0.0000 C   0  0  0  0  0  0  0  0  0  0  0  0
    5.9350    0.7160    0.0000 C   0  0  0  0  0  0  0  0  0  0  0  0
    5.3277    0.1576    0.0000 C   0  0  0  0  0  0  0  0  0  0  0  0
    3.5282    0.5647    0.0000 C   0  0  0  0  0  0  0  0  0  0  0  0
    2.7032    0.5733    0.0000 C   0  0  0  0  0  0  0  0  0  0  0  0
    2.2982    1.2920    0.0000 C   0  0  0  0  0  0  0  0  0  0  0  0
    2.7182    2.0022    0.0000 C   0  0  0  0  0  0  0  0  0  0  0  0
    3.5431    1.9935    0.0000 C   0  0  0  0  0  0  0  0  0  0  0  0
    3.9481    1.2748    0.0000 C   0  0  0  0  0  0  0  0  0  0  0  0
   -0.4125    0.0000    0.0000 Cl  0  5  0  0  0  0  0  0  0  0  0  0
    0.0000   -4.4948    0.0000 O   0  0  0  0  0  0  0  0  0  0  0  0
  2  3  1  0  0  0  0
  3  4  1  0  0  0  0
  4  5  1  0  0  0  0
  5  6  1  0  0  0  0
  6  7  1  0  0  0  0
  7  8  1  0  0  0  0
  3  8  1  0  0  0  0
  2  9  1  0  0  0  0
  9 10  1  0  0  0  0
 10 11  1  0  0  0  0
 11 12  1  0  0  0  0
 12 13  2  0  0  0  0
 12 14  1  0  0  0  0
 14 15  1  0  0  0  0
 15 16  1  0  0  0  0
 14 17  1  0  0  0  0
 10 17  1  0  0  0  0
 11 18  1  0  0  0  0
 18 19  2  0  0  0  0
 19 20  1  0  0  0  0
 20 21  2  0  0  0  0
 21 22  1  0  0  0  0
 22 23  2  0  0  0  0
 18 23  1  0  0  0  0
 11 24  1  0  0  0  0
 24 25  2  0  0  0  0
 25 26  1  0  0  0  0
 26 27  2  0  0  0  0
 27 28  1  0  0  0  0
 28 29  2  0  0  0  0
 24 29  1  0  0  0  0
M  CHG  2   1   1  30  -1
M  END
>  <Name>
Doxapram HCl

>  <CAS>
7081-53-0

>  <Formula>
C25H33ClN2O2

>  <MolWt>
432.99 

>  <Bioactivity>
Doxapram HCl is a respiratory stimulant.

>  <Pathways>
Membrane Transporter/Ion Channel

>  <Target>
Potassium Channel inhibitor

>  <Receptor>
Potassium Channel

>  <Reference>
1. Yost CS. CNS Drug Rev. 2006 Fall-Winter;12(3-4):236-49.

$$$$
357-08-4
  Mrv1561503291623562D          

 26 28  0  0  1  0            999 V2000
    0.1781   -0.3569    0.0000 C   0  0  0  0  0  0  0  0  0  0  0  0
   -0.1593    0.2475    0.0000 C   0  0  0  0  0  0  0  0  0  0  0  0
    0.5964    0.5786    0.0000 O   0  0  0  0  0  0  0  0  0  0  0  0
   -0.4055    0.9987    0.0000 C   0  0  0  0  0  0  0  0  0  0  0  0
   -1.2465    0.7679    0.0000 N   0  0  0  0  0  0  0  0  0  0  0  0
   -1.4866   -0.0632    0.0000 C   0  0  0  0  0  0  0  0  0  0  0  0
   -0.6814   -0.5859    0.0000 C   0  0  0  0  0  0  0  0  0  0  0  0
   -1.8259    1.3551    0.0000 C   0  0  0  0  0  0  0  0  0  0  0  0
   -2.6242    1.1470    0.0000 C   0  0  0  0  0  0  0  0  0  0  0  0
   -3.2037    1.7342    0.0000 C   0  0  0  0  0  0  0  0  0  0  0  0
    0.3904    1.3146    0.0000 C   0  0  0  0  0  0  0  0  0  0  0  0
    1.0924    0.8012    0.0000 C   0  0  0  0  0  0  0  0  0  0  0  0
    0.9352   -0.0361    0.0000 C   0  0  0  0  0  0  0  0  0  0  0  0
    1.4629   -0.6688    0.0000 C   0  0  0  0  0  0  0  0  0  0  0  0
    2.2619   -0.4316    0.0000 C   0  0  0  0  0  0  0  0  0  0  0  0
    2.8492   -1.0110    0.0000 O   0  0  0  0  0  0  0  0  0  0  0  0
    2.4890    0.3725    0.0000 C   0  0  0  0  0  0  0  0  0  0  0  0
    1.9077    0.9708    0.0000 C   0  0  0  0  0  0  0  0  0  0  0  0
    0.9995   -1.3815    0.0000 O   0  0  0  0  0  0  0  0  0  0  0  0
    0.1741   -1.1944    0.0000 C   0  0  0  0  0  0  0  0  0  0  0  0
   -0.6500   -1.4394    0.0000 C   0  0  0  0  0  0  0  0  0  0  0  0
   -0.8357   -2.2432    0.0000 O   0  0  0  0  0  0  0  0  0  0  0  0
   -1.2763   -0.8640    0.0000 C   0  0  0  0  0  0  0  0  0  0  0  0
   -0.9418   -0.0120    0.0000 C   0  0  0  0  0  0  0  0  0  0  0  0
    6.0314    0.0000    0.0000 H   0  3  0  0  0  0  0  0  0  0  0  0
    5.2064    0.0000    0.0000 Cl  0  5  0  0  0  0  0  0  0  0  0  0
  1  2  1  0  0  0  0
  2  3  1  0  0  0  0
  2  4  1  0  0  0  0
  4  5  1  0  0  0  0
  5  6  1  0  0  0  0
  6  7  1  0  0  0  0
  1  7  1  0  0  0  0
  5  8  1  0  0  0  0
  8  9  1  0  0  0  0
  9 10  2  0  0  0  0
  4 11  1  0  0  0  0
 11 12  1  0  0  0  0
 12 13  2  0  0  0  0
  1 13  1  0  0  0  0
 13 14  1  0  0  0  0
 14 15  2  0  0  0  0
 15 16  1  0  0  0  0
 15 17  1  0  0  0  0
 17 18  2  0  0  0  0
 12 18  1  0  0  0  0
 14 19  1  0  0  0  0
 19 20  1  0  0  0  0
  1 20  1  0  0  0  0
 20 21  1  0  0  0  0
 21 22  2  0  0  0  0
 21 23  1  0  0  0  0
 23 24  1  0  0  0  0
  2 24  1  0  0  0  0
M  CHG  2  25   1  26  -1
M  END
>  <Name>
Naloxone HCl

>  <CAS>
357-08-4

>  <Formula>
C19H21NO4.HCl

>  <MolWt>
363.84 

>  <Bioactivity>
Naloxone HCl is an opioid inverse agonist drug used to counter the effects of opiate overdose.

>  <Pathways>
Neuroscience

>  <Target>
Opioid Receptor

>  <Receptor>
Opioid Receptor

>  <Reference>
1. Liu B, et al. J Pharmacol Exp Ther, 2000, 293(2), 607-617.

$$$$
161973-10-0
  Mrv1561503291623562D          

 49 52  0  0  0  0            999 V2000
    0.0000    0.0000    0.0000 Mg  0  2  0  0  0  0  0  0  0  0  0  0
   11.0221    0.4502    0.0000 C   0  0  0  0  0  0  0  0  0  0  0  0
   10.3076    0.8627    0.0000 O   0  0  0  0  0  0  0  0  0  0  0  0
    9.5931    0.4502    0.0000 C   0  0  0  0  0  0  0  0  0  0  0  0
    9.5931   -0.3748    0.0000 C   0  0  0  0  0  0  0  0  0  0  0  0
    8.8787   -0.7873    0.0000 C   0  0  0  0  0  0  0  0  0  0  0  0
    8.1642   -0.3748    0.0000 C   0  0  0  0  0  0  0  0  0  0  0  0
    7.3796   -0.6297    0.0000 N   0  0  0  0  0  0  0  0  0  0  0  0
    6.8946    0.0377    0.0000 C   0  0  0  0  0  0  0  0  0  0  0  0
    7.3796    0.7052    0.0000 N   0  5  0  0  0  0  0  0  0  0  0  0
    8.1642    0.4502    0.0000 C   0  0  0  0  0  0  0  0  0  0  0  0
    8.8787    0.8627    0.0000 C   0  0  0  0  0  0  0  0  0  0  0  0
    6.0696    0.0377    0.0000 S   0  0  0  0  0  0  0  0  0  0  0  0
    5.6571    0.7522    0.0000 O   0  0  0  0  0  0  0  0  0  0  0  0
    5.6571   -0.6767    0.0000 C   0  0  0  0  0  0  0  0  0  0  0  0
    4.8321   -0.6767    0.0000 C   0  0  0  0  0  0  0  0  0  0  0  0
    4.4196   -1.3912    0.0000 N   0  0  0  0  0  0  0  0  0  0  0  0
    3.5946   -1.3912    0.0000 C   0  0  0  0  0  0  0  0  0  0  0  0
    3.1821   -0.6767    0.0000 C   0  0  0  0  0  0  0  0  0  0  0  0
    2.3571   -0.6767    0.0000 C   0  0  0  0  0  0  0  0  0  0  0  0
    3.5946    0.0377    0.0000 C   0  0  0  0  0  0  0  0  0  0  0  0
    3.1821    0.7522    0.0000 O   0  0  0  0  0  0  0  0  0  0  0  0
    3.5946    1.4667    0.0000 C   0  0  0  0  0  0  0  0  0  0  0  0
    4.4196    0.0377    0.0000 C   0  0  0  0  0  0  0  0  0  0  0  0
    4.8321    0.7522    0.0000 C   0  0  0  0  0  0  0  0  0  0  0  0
    4.7034   -4.0576    0.0000 C   0  0  0  0  0  0  0  0  0  0  0  0
    3.9889   -3.6451    0.0000 O   0  0  0  0  0  0  0  0  0  0  0  0
    3.2745   -4.0576    0.0000 C   0  0  0  0  0  0  0  0  0  0  0  0
    3.2745   -4.8826    0.0000 C   0  0  0  0  0  0  0  0  0  0  0  0
    2.5600   -5.2951    0.0000 C   0  0  0  0  0  0  0  0  0  0  0  0
    1.8455   -4.8826    0.0000 C   0  0  0  0  0  0  0  0  0  0  0  0
    1.0609   -5.1376    0.0000 N   0  5  0  0  0  0  0  0  0  0  0  0
    0.5760   -4.4701    0.0000 C   0  0  0  0  0  0  0  0  0  0  0  0
    1.0609   -3.8027    0.0000 N   0  0  0  0  0  0  0  0  0  0  0  0
    1.8455   -4.0576    0.0000 C   0  0  0  0  0  0  0  0  0  0  0  0
    2.5600   -3.6451    0.0000 C   0  0  0  0  0  0  0  0  0  0  0  0
   -0.2490   -4.4701    0.0000 S   0  0  0  0  0  0  0  0  0  0  0  0
   -0.6615   -3.7557    0.0000 O   0  0  0  0  0  0  0  0  0  0  0  0
   -0.6615   -5.1846    0.0000 C   0  0  0  0  0  0  0  0  0  0  0  0
   -1.4865   -5.1846    0.0000 C   0  0  0  0  0  0  0  0  0  0  0  0
   -1.8990   -5.8991    0.0000 N   0  0  0  0  0  0  0  0  0  0  0  0
   -2.7240   -5.8991    0.0000 C   0  0  0  0  0  0  0  0  0  0  0  0
   -3.1365   -5.1846    0.0000 C   0  0  0  0  0  0  0  0  0  0  0  0
   -3.9615   -5.1846    0.0000 C   0  0  0  0  0  0  0  0  0  0  0  0
   -2.7240   -4.4701    0.0000 C   0  0  0  0  0  0  0  0  0  0  0  0
   -3.1365   -3.7557    0.0000 O   0  0  0  0  0  0  0  0  0  0  0  0
   -2.7240   -3.0412    0.0000 C   0  0  0  0  0  0  0  0  0  0  0  0
   -1.8990   -4.4701    0.0000 C   0  0  0  0  0  0  0  0  0  0  0  0
   -1.4865   -3.7557    0.0000 C   0  0  0  0  0  0  0  0  0  0  0  0
  2  3  1  0  0  0  0
  3  4  1  0  0  0  0
  4  5  4  0  0  0  0
  5  6  4  0  0  0  0
  6  7  4  0  0  0  0
  7  8  4  0  0  0  0
  8  9  4  0  0  0  0
  9 10  4  0  0  0  0
 10 11  4  0  0  0  0
  7 11  4  0  0  0  0
 11 12  4  0  0  0  0
  4 12  4  0  0  0  0
  9 13  1  0  0  0  0
 13 14  2  0  0  0  0
 13 15  1  0  0  0  0
 15 16  1  0  0  0  0
 16 17  4  0  0  0  0
 17 18  4  0  0  0  0
 18 19  4  0  0  0  0
 19 20  1  0  0  0  0
 19 21  4  0  0  0  0
 21 22  1  0  0  0  0
 22 23  1  0  0  0  0
 21 24  4  0  0  0  0
 16 24  4  0  0  0  0
 24 25  1  0  0  0  0
 26 27  1  0  0  0  0
 27 28  1  0  0  0  0
 28 29  4  0  0  0  0
 29 30  4  0  0  0  0
 30 31  4  0  0  0  0
 31 32  4  0  0  0  0
 32 33  4  0  0  0  0
 33 34  4  0  0  0  0
 34 35  4  0  0  0  0
 31 35  4  0  0  0  0
 35 36  4  0  0  0  0
 28 36  4  0  0  0  0
 33 37  1  0  0  0  0
 37 38  2  0  0  0  0
 37 39  1  0  0  0  0
 39 40  1  0  0  0  0
 40 41  4  0  0  0  0
 41 42  4  0  0  0  0
 42 43  4  0  0  0  0
 43 44  1  0  0  0  0
 43 45  4  0  0  0  0
 45 46  1  0  0  0  0
 46 47  1  0  0  0  0
 45 48  4  0  0  0  0
 40 48  4  0  0  0  0
 48 49  1  0  0  0  0
M  CHG  3   1   2  10  -1  32  -1
M  END
>  <Name>
Esomeprazole Magnesium

>  <CAS>
161973-10-0

>  <Formula>
C34H36MgN6O6S2

>  <MolWt>
713.12 

>  <Bioactivity>
Esomeprazole Magnesium is a proton pump inhibitor to reduce gastric acid secretion.

>  <Pathways>
Membrane Transporter/Ion Channel

>  <Target>
ATPase inhibitor; Proton Pump inhibitor

>  <Receptor>
H+/K+-ATPase

>  <Reference>
1. Kumar P, et al. Drug Deliv Transl Res. 2015 Jun;5(3):243-56.

$$$$
T0095
  Mrv1561503291623562D          

 25 24  0  0  0  0            999 V2000
    0.4125    0.0000    0.0000 H   0  3  0  0  0  0  0  0  0  0  0  0
    5.5982   -0.5710    0.0000 C   0  0  0  0  0  0  0  0  0  0  0  0
    4.7732   -0.5710    0.0000 C   0  0  0  0  0  0  0  0  0  0  0  0
    4.3607   -1.2855    0.0000 N   0  0  0  0  0  0  0  0  0  0  0  0
    3.5357   -1.2855    0.0000 C   0  0  0  0  0  0  0  0  0  0  0  0
    3.1232   -2.0000    0.0000 C   0  0  0  0  0  0  0  0  0  0  0  0
    2.2982   -2.0000    0.0000 Cl  0  0  0  0  0  0  0  0  0  0  0  0
    4.7732   -2.0000    0.0000 C   0  0  0  0  0  0  0  0  0  0  0  0
    5.5982   -2.0000    0.0000 C   0  0  0  0  0  0  0  0  0  0  0  0
    6.0107   -2.7144    0.0000 Cl  0  0  0  0  0  0  0  0  0  0  0  0
    4.3607    0.1434    0.0000 C   0  0  0  0  0  0  0  0  0  0  0  0
    4.7732    0.8579    0.0000 C   0  0  0  0  0  0  0  0  0  0  0  0
    5.5982    0.8579    0.0000 C   0  0  0  0  0  0  0  0  0  0  0  0
    6.0107    0.1434    0.0000 C   0  0  0  0  0  0  0  0  0  0  0  0
    6.8177    0.3150    0.0000 N   0  0  0  0  0  0  0  0  0  0  0  0
    6.9039    1.1355    0.0000 C   0  0  0  0  0  0  0  0  0  0  0  0
    6.1502    1.4710    0.0000 N   0  0  0  0  0  0  0  0  0  0  0  0
    5.9787    2.2780    0.0000 C   0  0  0  0  0  0  0  0  0  0  0  0
    7.6184    1.5480    0.0000 C   0  0  0  0  0  0  0  0  0  0  0  0
    8.3329    1.1355    0.0000 C   0  0  0  0  0  0  0  0  0  0  0  0
    9.0473    1.5480    0.0000 C   0  0  0  0  0  0  0  0  0  0  0  0
    9.7618    1.1355    0.0000 C   0  0  0  0  0  0  0  0  0  0  0  0
   10.4763    1.5480    0.0000 O   0  0  0  0  0  0  0  0  0  0  0  0
    9.7618    0.3105    0.0000 O   0  0  0  0  0  0  0  0  0  0  0  0
   -0.4125    0.0000    0.0000 Cl  0  5  0  0  0  0  0  0  0  0  0  0
  2  3  2  0  0  0  0
  3  4  1  0  0  0  0
  4  5  1  0  0  0  0
  5  6  1  0  0  0  0
  6  7  1  0  0  0  0
  4  8  1  0  0  0  0
  8  9  1  0  0  0  0
  9 10  1  0  0  0  0
  3 11  1  0  0  0  0
 11 12  2  0  0  0  0
 12 13  1  0  0  0  0
 13 14  2  0  0  0  0
  2 14  1  0  0  0  0
 14 15  1  0  0  0  0
 15 16  2  0  0  0  0
 16 17  1  0  0  0  0
 13 17  1  0  0  0  0
 17 18  1  0  0  0  0
 16 19  1  0  0  0  0
 19 20  1  0  0  0  0
 20 21  1  0  0  0  0
 21 22  1  0  0  0  0
 22 23  1  0  0  0  0
 22 24  2  0  0  0  0
M  CHG  2   1   1  25  -1
M  END
>  <Name>
Bendamustine HCl

>  <CAS>
3543-75-7

>  <Formula>
C16H21Cl2N3O2.HCl

>  <MolWt>
394.72 

>  <Bioactivity>
Bendamustine HCl is an alkylating agent associated with DNA damage with IC50 of 50 ?M

>  <Pathways>
DNA Damage/DNA Repair

>  <Target>
DNA damage

>  <Receptor>
DNA damage

>  <Reference>
1. Leoni LM, et al. Clin Cancer Res. 2008, 14(1), 309-317.

$$$$
T1513
  Mrv1561503291623562D          

 17 18  0  0  1  0            999 V2000
    0.7145   -1.2375    0.0000 C   0  0  1  0  0  0  0  0  0  0  0  0
    0.7145   -0.4125    0.0000 N   0  0  0  0  0  0  0  0  0  0  0  0
   -0.0000   -0.0000    0.0000 C   0  0  0  0  0  0  0  0  0  0  0  0
   -0.0000    0.8250    0.0000 N   0  0  0  0  0  0  0  0  0  0  0  0
    0.7145    1.2375    0.0000 C   0  0  0  0  0  0  0  0  0  0  0  0
    0.7145    2.0625    0.0000 O   0  0  0  0  0  0  0  0  0  0  0  0
    1.4289    0.8250    0.0000 C   0  0  0  0  0  0  0  0  0  0  0  0
    1.4289   -0.0000    0.0000 C   0  0  0  0  0  0  0  0  0  0  0  0
    2.1434    1.2375    0.0000 C   0  0  0  0  0  0  0  0  0  0  0  0
   -0.7145   -0.4125    0.0000 O   0  0  0  0  0  0  0  0  0  0  0  0
    1.3819   -1.7224    0.0000 O   0  0  0  0  0  0  0  0  0  0  0  0
    1.1270   -2.5070    0.0000 C   0  0  1  0  0  0  0  0  0  0  0  0
    1.6119   -3.1745    0.0000 C   0  0  0  0  0  0  0  0  0  0  0  0
    2.4324   -3.0882    0.0000 O   0  0  0  0  0  0  0  0  0  0  0  0
    0.3020   -2.5070    0.0000 C   0  0  1  0  0  0  0  0  0  0  0  0
    0.0470   -1.7224    0.0000 C   0  0  0  0  0  0  0  0  0  0  0  0
   -0.1830   -3.1745    0.0000 O   0  0  0  0  0  0  0  0  0  0  0  0
  1  2  1  1  0  0  0
  2  3  1  0  0  0  0
  3  4  1  0  0  0  0
  4  5  1  0  0  0  0
  5  6  2  0  0  0  0
  5  7  1  0  0  0  0
  7  8  2  0  0  0  0
  2  8  1  0  0  0  0
  7  9  1  0  0  0  0
  3 10  2  0  0  0  0
  1 11  1  0  0  0  0
 11 12  1  0  0  0  0
 12 13  1  1  0  0  0
 13 14  1  0  0  0  0
 12 15  1  0  0  0  0
 15 16  1  0  0  0  0
  1 16  1  0  0  0  0
 15 17  1  6  0  0  0
M  END
>  <Name>
2'-Deoxy-L-thymidine

>  <CAS>
3424-98-4

>  <Formula>
C10H14N2O5

>  <MolWt>
242.23 

>  <Bioactivity>
Telbivudine is a Hepatitis B Virus Nucleoside Analog Reverse Transcriptase Inhibitor. The mechanism of action of telbivudine is as a Nucleoside Reverse Transcriptase Inhibitor. The chemical classification of telbivudine is Nucleoside Analog.


>  <Pathways>
Microbiology & Virology

>  <Target>
Antiviral; Reverse Transcriptase inhibitor

>  <Receptor>
Reverse Transcriptase ;Protein P;Reverse Transcriptase

>  <Reference>
1. Bridges EG, et al. Antimicrob Agents Chemother, 2008, 52(7), 2521-2528.

$$$$
T2368L
  Mrv1561503291623562D          

 48 51  0  0  0  0            999 V2000
   -0.0000    2.1750    0.0000 C   0  0  0  0  0  0  0  0  0  0  0  0
   -0.0000    1.3500    0.0000 C   0  0  0  0  0  0  0  0  0  0  0  0
    0.7145    0.9375    0.0000 C   0  0  0  0  0  0  0  0  0  0  0  0
    0.7145    0.1125    0.0000 C   0  0  0  0  0  0  0  0  0  0  0  0
    0.0000   -0.3000    0.0000 C   0  0  0  0  0  0  0  0  0  0  0  0
   -0.7145    0.1125    0.0000 C   0  0  0  0  0  0  0  0  0  0  0  0
   -0.7145    0.9375    0.0000 C   0  0  0  0  0  0  0  0  0  0  0  0
    0.0000   -1.1250    0.0000 S   0  0  0  0  0  0  0  0  0  0  0  0
    0.0000   -1.9500    0.0000 O   0  0  0  0  0  0  0  0  0  0  0  0
   -0.8250   -1.1250    0.0000 O   0  0  0  0  0  0  0  0  0  0  0  0
    0.8250   -1.1250    0.0000 O   0  0  0  0  0  0  0  0  0  0  0  0
   10.5433   -0.7807    0.0000 C   0  0  0  0  0  0  0  0  0  0  0  0
    9.8288   -1.1932    0.0000 N   0  0  0  0  0  0  0  0  0  0  0  0
    9.8288   -2.0182    0.0000 C   0  0  0  0  0  0  0  0  0  0  0  0
    9.1144   -2.4307    0.0000 C   0  0  0  0  0  0  0  0  0  0  0  0
    8.3999   -2.0182    0.0000 C   0  0  0  0  0  0  0  0  0  0  0  0
    8.3999   -1.1932    0.0000 C   0  0  0  0  0  0  0  0  0  0  0  0
    9.1144   -0.7807    0.0000 C   0  0  0  0  0  0  0  0  0  0  0  0
    7.6153   -0.9383    0.0000 S   0  0  0  0  0  0  0  0  0  0  0  0
    7.1304   -1.6057    0.0000 C   0  0  0  0  0  0  0  0  0  0  0  0
    7.6153   -2.2732    0.0000 N   0  0  0  0  0  0  0  0  0  0  0  0
    6.3054   -1.6057    0.0000 C   0  0  0  0  0  0  0  0  0  0  0  0
    5.8929   -2.3202    0.0000 O   0  0  0  0  0  0  0  0  0  0  0  0
    5.8929   -0.8912    0.0000 N   0  0  0  0  0  0  0  0  0  0  0  0
    5.0679   -0.8912    0.0000 C   0  0  0  0  0  0  0  0  0  0  0  0
    4.6554   -1.6057    0.0000 C   0  0  0  0  0  0  0  0  0  0  0  0
    3.8304   -1.6057    0.0000 C   0  0  0  0  0  0  0  0  0  0  0  0
    3.4179   -0.8912    0.0000 C   0  0  0  0  0  0  0  0  0  0  0  0
    3.8304   -0.1768    0.0000 C   0  0  0  0  0  0  0  0  0  0  0  0
    4.6554   -0.1768    0.0000 C   0  0  0  0  0  0  0  0  0  0  0  0
    5.0679    0.5377    0.0000 N   0  0  0  0  0  0  0  0  0  0  0  0
    4.6554    1.2522    0.0000 C   0  0  0  0  0  0  0  0  0  0  0  0
    3.8304    1.2522    0.0000 O   0  0  0  0  0  0  0  0  0  0  0  0
    5.0679    1.9666    0.0000 C   0  0  0  0  0  0  0  0  0  0  0  0
    5.8929    1.9666    0.0000 O   0  0  0  0  0  0  0  0  0  0  0  0
    4.6554    2.6811    0.0000 N   0  0  0  0  0  0  0  0  0  0  0  0
    5.0679    3.3956    0.0000 C   0  0  0  0  0  0  0  0  0  0  0  0
    4.6554    4.1100    0.0000 N   0  0  0  0  0  0  0  0  0  0  0  0
    5.0679    4.8245    0.0000 C   0  0  0  0  0  0  0  0  0  0  0  0
    5.8929    4.8245    0.0000 C   0  0  0  0  0  0  0  0  0  0  0  0
    6.3054    4.1100    0.0000 C   0  0  0  0  0  0  0  0  0  0  0  0
    5.8929    3.3956    0.0000 C   0  0  0  0  0  0  0  0  0  0  0  0
    6.3054    5.5390    0.0000 Cl  0  0  0  0  0  0  0  0  0  0  0  0
    3.4179   -2.3202    0.0000 C   0  0  0  0  0  0  0  0  0  0  0  0
    2.5929   -2.3202    0.0000 O   0  0  0  0  0  0  0  0  0  0  0  0
    3.8304   -3.0347    0.0000 N   0  0  0  0  0  0  0  0  0  0  0  0
    4.6554   -3.0347    0.0000 C   0  0  0  0  0  0  0  0  0  0  0  0
    3.4179   -3.7491    0.0000 C   0  0  0  0  0  0  0  0  0  0  0  0
  1  2  1  0  0  0  0
  2  3  2  0  0  0  0
  3  4  1  0  0  0  0
  4  5  2  0  0  0  0
  5  6  1  0  0  0  0
  6  7  2  0  0  0  0
  2  7  1  0  0  0  0
  5  8  1  0  0  0  0
  8  9  2  0  0  0  0
  8 10  2  0  0  0  0
  8 11  1  0  0  0  0
 12 13  1  0  0  0  0
 13 14  1  0  0  0  0
 14 15  1  0  0  0  0
 15 16  1  0  0  0  0
 16 17  2  0  0  0  0
 17 18  1  0  0  0  0
 13 18  1  0  0  0  0
 17 19  1  0  0  0  0
 19 20  1  0  0  0  0
 20 21  2  0  0  0  0
 16 21  1  0  0  0  0
 20 22  1  0  0  0  0
 22 23  2  0  0  0  0
 22 24  1  0  0  0  0
 24 25  1  0  0  0  0
 25 26  1  0  0  0  0
 26 27  1  0  0  0  0
 27 28  1  0  0  0  0
 28 29  1  0  0  0  0
 29 30  1  0  0  0  0
 25 30  1  0  0  0  0
 30 31  1  0  0  0  0
 31 32  1  0  0  0  0
 32 33  2  0  0  0  0
 32 34  1  0  0  0  0
 34 35  2  0  0  0  0
 34 36  1  0  0  0  0
 36 37  1  0  0  0  0
 37 38  2  0  0  0  0
 38 39  1  0  0  0  0
 39 40  2  0  0  0  0
 40 41  1  0  0  0  0
 41 42  2  0  0  0  0
 37 42  1  0  0  0  0
 40 43  1  0  0  0  0
 27 44  1  0  0  0  0
 44 45  2  0  0  0  0
 44 46  1  0  0  0  0
 46 47  1  0  0  0  0
 46 48  1  0  0  0  0
M  END
>  <Name>
Edoxaban

>  <CAS>
912273-65-5

>  <Formula>
C24H30ClN7O4S.C7H8O3S.H2O

>  <MolWt>
738.27 

>  <Bioactivity>
Edoxaban is a selective factor Xa inhibitor with Ki of 0.561 nM, >10 000-fold selectivity over thrombin and FIXa, and is also an orally bioavailable anticoagulant drug.

>  <Pathways>
Metabolism

>  <Target>
Factor Xa inhibitor

>  <Receptor>
Factor Xa;Thrombin

>  <Reference>
1. Furugohri T, et al. J Thromb Haemost. 2008, 6(9), 1542-1549.

$$$$
375815-87-5
  Mrv1561503291623562D          

 26 28  0  0  1  0            999 V2000
    0.3572    0.2063    0.0000 C   0  0  1  0  0  0  0  0  0  0  0  0
    0.3572    1.0313    0.0000 O   0  0  0  0  0  0  0  0  0  0  0  0
   -0.3572   -0.2062    0.0000 C   0  0  2  0  0  0  0  0  0  0  0  0
   -0.3572   -1.0312    0.0000 O   0  0  0  0  0  0  0  0  0  0  0  0
   -1.0717    0.2063    0.0000 C   0  0  0  0  0  0  0  0  0  0  0  0
   -1.7862   -0.2063    0.0000 O   0  0  0  0  0  0  0  0  0  0  0  0
   -1.0717    1.0312    0.0000 O   0  0  0  0  0  0  0  0  0  0  0  0
    1.0717   -0.2062    0.0000 C   0  0  0  0  0  0  0  0  0  0  0  0
    1.7862    0.2063    0.0000 O   0  0  0  0  0  0  0  0  0  0  0  0
    1.0717   -1.0312    0.0000 O   0  0  0  0  0  0  0  0  0  0  0  0
    6.3071   -0.8250    0.0000 C   0  0  0  0  0  0  0  0  0  0  0  0
    5.5926   -0.4125    0.0000 C   0  0  0  0  0  0  0  0  0  0  0  0
    5.5926    0.4125    0.0000 C   0  0  0  0  0  0  0  0  0  0  0  0
    6.3071    0.8250    0.0000 C   0  0  0  0  0  0  0  0  0  0  0  0
    7.0216    0.4125    0.0000 C   0  0  0  0  0  0  0  0  0  0  0  0
    7.0216   -0.4125    0.0000 C   0  0  0  0  0  0  0  0  0  0  0  0
    7.7361   -0.8250    0.0000 N   0  0  0  0  0  0  0  0  0  0  0  0
    8.4505   -0.4125    0.0000 C   0  0  0  0  0  0  0  0  0  0  0  0
    8.4505    0.4125    0.0000 C   0  0  0  0  0  0  0  0  0  0  0  0
    7.7361    0.8250    0.0000 N   0  0  0  0  0  0  0  0  0  0  0  0
    4.9476    0.9269    0.0000 C   0  0  0  0  0  0  0  0  0  0  0  0
    4.7159   -0.0000    0.0000 C   0  0  0  0  0  0  0  0  0  0  0  0
    4.9476   -0.9269    0.0000 C   0  0  0  0  0  0  0  0  0  0  0  0
    4.1433   -0.7433    0.0000 C   0  0  0  0  0  0  0  0  0  0  0  0
    3.7854   -0.0000    0.0000 N   0  0  0  0  0  0  0  0  0  0  0  0
    4.1433    0.7433    0.0000 C   0  0  0  0  0  0  0  0  0  0  0  0
  1  2  1  6  0  0  0
  1  3  1  0  0  0  0
  3  4  1  6  0  0  0
  3  5  1  0  0  0  0
  5  6  2  0  0  0  0
  5  7  1  0  0  0  0
  1  8  1  0  0  0  0
  8  9  2  0  0  0  0
  8 10  1  0  0  0  0
 11 12  2  0  0  0  0
 12 13  1  0  0  0  0
 13 14  2  0  0  0  0
 14 15  1  0  0  0  0
 15 16  2  0  0  0  0
 11 16  1  0  0  0  0
 16 17  1  0  0  0  0
 17 18  2  0  0  0  0
 18 19  1  0  0  0  0
 19 20  2  0  0  0  0
 15 20  1  0  0  0  0
 13 21  1  0  0  0  0
 21 22  1  0  0  0  0
 22 23  1  0  0  0  0
 12 23  1  0  0  0  0
 23 24  1  0  0  0  0
 24 25  1  0  0  0  0
 25 26  1  0  0  0  0
 21 26  1  0  0  0  0
M  END
>  <Name>
Varenicline Tartrate

>  <CAS>
375815-87-5

>  <Formula>
C13H13N3·C4H6O6

>  <MolWt>
361.35 

>  <Bioactivity>
Varenicline Tartrate is a nicotinic AChR partial agonist, used to treat nicotine addiction.

>  <Pathways>
Neuroscience

>  <Target>
AChR antagonist

>  <Receptor>
Muscarinic AChR

>  <Reference>
1. Rollema H, et al. Neuropharmacology, 2007, 52(3), 985-994.

$$$$
161796-78-7
  Mrv1561503291623562D          

 25 26  0  0  1  0            999 V2000
    0.0000    0.0000    0.0000 Na  0  3  0  0  0  0  0  0  0  0  0  0
   11.0221    0.4502    0.0000 C   0  0  0  0  0  0  0  0  0  0  0  0
   10.3076    0.8627    0.0000 O   0  0  0  0  0  0  0  0  0  0  0  0
    9.5931    0.4502    0.0000 C   0  0  0  0  0  0  0  0  0  0  0  0
    9.5931   -0.3748    0.0000 C   0  0  0  0  0  0  0  0  0  0  0  0
    8.8787   -0.7873    0.0000 C   0  0  0  0  0  0  0  0  0  0  0  0
    8.1642   -0.3748    0.0000 C   0  0  0  0  0  0  0  0  0  0  0  0
    7.3796   -0.6297    0.0000 N   0  0  0  0  0  0  0  0  0  0  0  0
    6.8946    0.0377    0.0000 C   0  0  0  0  0  0  0  0  0  0  0  0
    7.3796    0.7052    0.0000 N   0  5  0  0  0  0  0  0  0  0  0  0
    8.1642    0.4502    0.0000 C   0  0  0  0  0  0  0  0  0  0  0  0
    8.8787    0.8627    0.0000 C   0  0  0  0  0  0  0  0  0  0  0  0
    6.0696    0.0377    0.0000 S   0  0  1  0  0  0  0  0  0  0  0  0
    5.6571    0.7522    0.0000 O   0  0  0  0  0  0  0  0  0  0  0  0
    5.6571   -0.6767    0.0000 C   0  0  0  0  0  0  0  0  0  0  0  0
    4.8321   -0.6767    0.0000 C   0  0  0  0  0  0  0  0  0  0  0  0
    4.4196   -1.3912    0.0000 N   0  0  0  0  0  0  0  0  0  0  0  0
    3.5946   -1.3912    0.0000 C   0  0  0  0  0  0  0  0  0  0  0  0
    3.1821   -0.6767    0.0000 C   0  0  0  0  0  0  0  0  0  0  0  0
    2.3571   -0.6767    0.0000 C   0  0  0  0  0  0  0  0  0  0  0  0
    3.5946    0.0377    0.0000 C   0  0  0  0  0  0  0  0  0  0  0  0
    3.1821    0.7522    0.0000 O   0  0  0  0  0  0  0  0  0  0  0  0
    3.5946    1.4667    0.0000 C   0  0  0  0  0  0  0  0  0  0  0  0
    4.4196    0.0377    0.0000 C   0  0  0  0  0  0  0  0  0  0  0  0
    4.8321    0.7522    0.0000 C   0  0  0  0  0  0  0  0  0  0  0  0
  2  3  1  0  0  0  0
  3  4  1  0  0  0  0
  4  5  4  0  0  0  0
  5  6  4  0  0  0  0
  6  7  4  0  0  0  0
  7  8  1  0  0  0  0
  8  9  1  0  0  0  0
  9 10  1  0  0  0  0
 10 11  1  0  0  0  0
  7 11  4  0  0  0  0
 11 12  4  0  0  0  0
  4 12  4  0  0  0  0
  9 13  1  0  0  0  0
 13 14  2  0  0  0  0
 13 15  1  6  0  0  0
 15 16  1  0  0  0  0
 16 17  4  0  0  0  0
 17 18  4  0  0  0  0
 18 19  4  0  0  0  0
 19 20  1  0  0  0  0
 19 21  4  0  0  0  0
 21 22  1  0  0  0  0
 22 23  1  0  0  0  0
 21 24  4  0  0  0  0
 16 24  4  0  0  0  0
 24 25  1  0  0  0  0
M  CHG  2   1   1  10  -1
M  END
>  <Name>
Esomeprazole Sodium

>  <CAS>
161796-78-7

>  <Formula>
C17H18N3O3S.Na

>  <MolWt>
367.40 

>  <Bioactivity>
Esomeprazole Sodium is a sodium salt of esomeprazole that is a potent proton pump inhibitor with an IC50 of 0.076 mg/kg.

>  <Pathways>
Membrane Transporter/Ion Channel

>  <Target>
ATPase inhibitor; Proton Pump inhibitor

>  <Receptor>
H+/K+-ATPase

>  <Reference>
1. Kumar P, et al. Drug Deliv Transl Res. 2015 Jun;5(3):243-56.

$$$$
2471-70-7
  Mrv1561503291623562D          

 15 16  0  0  0  0            999 V2000
    0.7145   -0.4125    0.0000 C   0  0  0  0  0  0  0  0  0  0  0  0
    1.4289   -0.0000    0.0000 C   0  0  0  0  0  0  0  0  0  0  0  0
    2.1434   -0.4125    0.0000 C   0  0  0  0  0  0  0  0  0  0  0  0
    2.8579   -0.0000    0.0000 C   0  0  0  0  0  0  0  0  0  0  0  0
    3.5724   -0.4125    0.0000 C   0  0  0  0  0  0  0  0  0  0  0  0
    3.5724   -1.2375    0.0000 C   0  0  0  0  0  0  0  0  0  0  0  0
    2.8579   -1.6500    0.0000 C   0  0  0  0  0  0  0  0  0  0  0  0
    2.1434   -1.2375    0.0000 C   0  0  0  0  0  0  0  0  0  0  0  0
    1.4289   -1.6500    0.0000 C   0  0  0  0  0  0  0  0  0  0  0  0
    0.7145   -1.2375    0.0000 C   0  0  0  0  0  0  0  0  0  0  0  0
   -0.0000   -1.6500    0.0000 O   0  0  0  0  0  0  0  0  0  0  0  0
   -0.0000   -2.4750    0.0000 C   0  0  0  0  0  0  0  0  0  0  0  0
    4.2868    0.0000    0.0000 C   0  0  0  0  0  0  0  0  0  0  0  0
    4.2868    0.8250    0.0000 O   0  5  0  0  0  0  0  0  0  0  0  0
    5.0013   -0.4125    0.0000 O   0  0  0  0  0  0  0  0  0  0  0  0
  1  2  2  0  0  0  0
  2  3  1  0  0  0  0
  3  4  2  0  0  0  0
  4  5  1  0  0  0  0
  5  6  2  0  0  0  0
  6  7  1  0  0  0  0
  7  8  2  0  0  0  0
  3  8  1  0  0  0  0
  8  9  1  0  0  0  0
  9 10  2  0  0  0  0
  1 10  1  0  0  0  0
 10 11  1  0  0  0  0
 11 12  1  0  0  0  0
  5 13  1  0  0  0  0
 13 14  1  0  0  0  0
 13 15  2  0  0  0  0
M  CHG  1  14  -1
M  END
>  <Name>
6-Methoxy-2-naphthoic acid

>  <CAS>
2471-70-7

>  <Formula>
C12H10O3

>  <MolWt>
202.21 

>  <Bioactivity>
Used as pharmaceutical intermediates

>  <Pathways>
Others

>  <Target>
Intermediates

>  <Receptor>
Others

>  <Reference>
1. Narayana B, et al. Arch Pharm (Weinheim). 2005 Aug;338(8):373-7.

$$$$
34369-07-8
  Mrv1561503291623562D          

 31 33  0  0  1  0            999 V2000
    0.0992    1.0091    0.0000 C   0  0  2  0  0  0  0  0  0  0  0  0
   -0.5683    0.5241    0.0000 O   0  0  0  0  0  0  0  0  0  0  0  0
    0.0992    1.8341    0.0000 C   0  0  2  0  0  0  0  0  0  0  0  0
   -0.5683    2.3190    0.0000 O   0  0  0  0  0  0  0  0  0  0  0  0
    0.8838    2.0890    0.0000 C   0  0  2  0  0  0  0  0  0  0  0  0
    1.3687    1.4216    0.0000 O   0  0  0  0  0  0  0  0  0  0  0  0
    0.8838    0.7541    0.0000 C   0  0  1  0  0  0  0  0  0  0  0  0
    1.1387   -0.0305    0.0000 N   0  0  0  0  0  0  0  0  0  0  0  0
    1.9233   -0.2854    0.0000 C   0  0  0  0  0  0  0  0  0  0  0  0
    2.6378    0.1271    0.0000 N   0  0  0  0  0  0  0  0  0  0  0  0
    3.3523   -0.2854    0.0000 C   0  0  0  0  0  0  0  0  0  0  0  0
    3.3523   -1.1104    0.0000 N   0  0  0  0  0  0  0  0  0  0  0  0
    2.6378   -1.5229    0.0000 C   0  0  0  0  0  0  0  0  0  0  0  0
    1.9233   -1.1104    0.0000 C   0  0  0  0  0  0  0  0  0  0  0  0
    1.1387   -1.3654    0.0000 N   0  0  0  0  0  0  0  0  0  0  0  0
    0.6538   -0.6979    0.0000 C   0  0  0  0  0  0  0  0  0  0  0  0
    2.6378   -2.3479    0.0000 N   0  0  0  0  0  0  0  0  0  0  0  0
    1.1387    2.8736    0.0000 C   0  0  0  0  0  0  0  0  0  0  0  0
    1.9457    3.0451    0.0000 O   0  0  0  0  0  0  0  0  0  0  0  0
    2.2006    3.8298    0.0000 P   0  0  0  0  0  0  0  0  0  0  0  0
    2.4556    4.6144    0.0000 O   0  0  0  0  0  0  0  0  0  0  0  0
    3.2625    4.7859    0.0000 P   0  0  0  0  0  0  0  0  0  0  0  0
    4.0695    4.9574    0.0000 O   0  0  0  0  0  0  0  0  0  0  0  0
    4.3245    5.7421    0.0000 P   0  0  0  0  0  0  0  0  0  0  0  0
    4.5794    6.5267    0.0000 O   0  5  0  0  0  0  0  0  0  0  0  0
    5.1091    5.4871    0.0000 O   0  5  0  0  0  0  0  0  0  0  0  0
    3.5398    5.9970    0.0000 O   0  0  0  0  0  0  0  0  0  0  0  0
    3.4341    3.9789    0.0000 O   0  5  0  0  0  0  0  0  0  0  0  0
    3.0910    5.5929    0.0000 O   0  0  0  0  0  0  0  0  0  0  0  0
    2.9853    3.5748    0.0000 O   0  5  0  0  0  0  0  0  0  0  0  0
    1.4160    4.0847    0.0000 O   0  0  0  0  0  0  0  0  0  0  0  0
  1  2  1  6  0  0  0
  1  3  1  0  0  0  0
  3  4  1  6  0  0  0
  3  5  1  0  0  0  0
  5  6  1  0  0  0  0
  6  7  1  0  0  0  0
  1  7  1  0  0  0  0
  7  8  1  1  0  0  0
  8  9  1  0  0  0  0
  9 10  2  0  0  0  0
 10 11  1  0  0  0  0
 11 12  2  0  0  0  0
 12 13  1  0  0  0  0
 13 14  2  0  0  0  0
  9 14  1  0  0  0  0
 14 15  1  0  0  0  0
 15 16  2  0  0  0  0
  8 16  1  0  0  0  0
 13 17  1  0  0  0  0
  5 18  1  1  0  0  0
 18 19  1  0  0  0  0
 19 20  1  0  0  0  0
 20 21  1  0  0  0  0
 21 22  1  0  0  0  0
 22 23  1  0  0  0  0
 23 24  1  0  0  0  0
 24 25  1  0  0  0  0
 24 26  1  0  0  0  0
 24 27  2  0  0  0  0
 22 28  1  0  0  0  0
 22 29  2  0  0  0  0
 20 30  1  0  0  0  0
 20 31  2  0  0  0  0
M  CHG  4  25  -1  26  -1  28  -1  30  -1
M  END
>  <Name>
Adenosine disodium triphosphate 

>  <CAS>
34369-07-8

>  <Formula>
C10H14N5Na2O13P3

>  <MolWt>
551.15 

>  <Bioactivity>
Adenosine triphosphate (ATP) is a nucleoside triphosphate used in cells as a coenzyme often called the "molecular unit of currency" of intracellular energy transfer.

>  <Pathways>
Others

>  <Target>
Others

>  <Receptor>
Others

>  <Reference>
1. Shan G, et al. Se Pu. 2014 Nov;32(11):1275-9. Chinese.

$$$$
151767-02-1
  Mrv1561503291623562D          

 42 45  0  0  1  0            999 V2000
   -5.0013   -0.4125    0.0000 C   0  0  0  0  0  0  0  0  0  0  0  0
   -5.0013   -1.2375    0.0000 S   0  0  0  0  0  0  0  0  0  0  0  0
   -5.7158   -1.6500    0.0000 C   0  0  0  0  0  0  0  0  0  0  0  0
   -5.7158   -2.4750    0.0000 C   0  0  0  0  0  0  0  0  0  0  0  0
   -5.9979   -3.2502    0.0000 C   0  0  0  0  0  0  0  0  0  0  0  0
   -6.5282   -2.6183    0.0000 C   0  0  0  0  0  0  0  0  0  0  0  0
   -4.9033   -2.6183    0.0000 C   0  0  0  0  0  0  0  0  0  0  0  0
   -4.6211   -3.3935    0.0000 C   0  0  0  0  0  0  0  0  0  0  0  0
   -5.1514   -4.0255    0.0000 O   0  5  0  0  0  0  0  0  0  0  0  0
   -3.8087   -3.5368    0.0000 O   0  0  0  0  0  0  0  0  0  0  0  0
   -4.2868   -0.0000    0.0000 C   0  0  0  0  0  0  0  0  0  0  0  0
   -4.2868    0.8250    0.0000 C   0  0  0  0  0  0  0  0  0  0  0  0
   -3.5724    1.2375    0.0000 C   0  0  0  0  0  0  0  0  0  0  0  0
   -2.8579    0.8250    0.0000 C   0  0  0  0  0  0  0  0  0  0  0  0
   -2.8579   -0.0000    0.0000 C   0  0  0  0  0  0  0  0  0  0  0  0
   -3.5724   -0.4125    0.0000 C   0  0  0  0  0  0  0  0  0  0  0  0
   -2.1434   -0.4125    0.0000 C   0  0  0  0  0  0  0  0  0  0  0  0
   -1.4289   -0.0000    0.0000 C   0  0  0  0  0  0  0  0  0  0  0  0
   -0.7145   -0.4125    0.0000 C   0  0  0  0  0  0  0  0  0  0  0  0
   -0.7145   -1.2375    0.0000 C   0  0  0  0  0  0  0  0  0  0  0  0
   -0.0000   -1.6500    0.0000 C   0  0  0  0  0  0  0  0  0  0  0  0
    0.7145   -1.2375    0.0000 C   0  0  0  0  0  0  0  0  0  0  0  0
    0.7145   -0.4125    0.0000 C   0  0  0  0  0  0  0  0  0  0  0  0
   -0.0000   -0.0000    0.0000 N   0  0  0  0  0  0  0  0  0  0  0  0
    1.4289    0.0000    0.0000 C   0  0  0  0  0  0  0  0  0  0  0  0
    2.1434   -0.4125    0.0000 C   0  0  0  0  0  0  0  0  0  0  0  0
    2.8579   -0.0000    0.0000 Cl  0  0  0  0  0  0  0  0  0  0  0  0
    2.1434   -1.2375    0.0000 C   0  0  0  0  0  0  0  0  0  0  0  0
    1.4289   -1.6500    0.0000 C   0  0  0  0  0  0  0  0  0  0  0  0
   -5.7158   -0.0000    0.0000 C   0  0  0  0  0  0  0  0  0  0  0  0
   -6.4302   -0.4125    0.0000 C   0  0  0  0  0  0  0  0  0  0  0  0
   -7.1447   -0.0000    0.0000 C   0  0  0  0  0  0  0  0  0  0  0  0
   -7.8592   -0.4125    0.0000 C   0  0  0  0  0  0  0  0  0  0  0  0
   -8.5737   -0.0000    0.0000 C   0  0  0  0  0  0  0  0  0  0  0  0
   -8.5737    0.8250    0.0000 C   0  0  0  0  0  0  0  0  0  0  0  0
   -7.8592    1.2375    0.0000 C   0  0  0  0  0  0  0  0  0  0  0  0
   -7.1447    0.8250    0.0000 C   0  0  0  0  0  0  0  0  0  0  0  0
   -6.4302    1.2375    0.0000 C   0  0  0  0  0  0  0  0  0  0  0  0
   -5.7158    1.6500    0.0000 O   0  0  0  0  0  0  0  0  0  0  0  0
   -6.0177    0.5230    0.0000 C   0  0  0  0  0  0  0  0  0  0  0  0
   -6.8427    1.9520    0.0000 C   0  0  0  0  0  0  0  0  0  0  0  0
   -5.6817   -4.6575    0.0000 Na  0  3  0  0  0  0  0  0  0  0  0  0
  1  2  1  0  0  0  0
  2  3  1  0  0  0  0
  3  4  1  0  0  0  0
  4  5  1  0  0  0  0
  5  6  1  0  0  0  0
  4  6  1  0  0  0  0
  4  7  1  0  0  0  0
  7  8  1  0  0  0  0
  8  9  1  0  0  0  0
  8 10  2  0  0  0  0
  1 11  1  0  0  0  0
 11 12  2  0  0  0  0
 12 13  1  0  0  0  0
 13 14  2  0  0  0  0
 14 15  1  0  0  0  0
 15 16  2  0  0  0  0
 11 16  1  0  0  0  0
 15 17  1  0  0  0  0
 17 18  2  0  0  0  0
 18 19  1  0  0  0  0
 19 20  2  0  0  0  0
 20 21  1  0  0  0  0
 21 22  2  0  0  0  0
 22 23  1  0  0  0  0
 23 24  2  0  0  0  0
 19 24  1  0  0  0  0
 23 25  1  0  0  0  0
 25 26  2  0  0  0  0
 26 27  1  0  0  0  0
 26 28  1  0  0  0  0
 28 29  2  0  0  0  0
 22 29  1  0  0  0  0
  1 30  1  0  0  0  0
 30 31  1  0  0  0  0
 31 32  1  0  0  0  0
 32 33  2  0  0  0  0
 33 34  1  0  0  0  0
 34 35  2  0  0  0  0
 35 36  1  0  0  0  0
 36 37  2  0  0  0  0
 32 37  1  0  0  0  0
 37 38  1  0  0  0  0
 38 39  1  0  0  0  0
 38 40  1  0  0  0  0
 38 41  1  0  0  0  0
M  CHG  2   9  -1  42   1
M  END
>  <Name>
Montelukast sodium

>  <CAS>
151767-02-1

>  <Formula>
C35H35ClNNaO3S

>  <MolWt>
608.17 

>  <Bioactivity>
Montelukast is a leukotriene receptor antagonist (LTRA) used for the maintenance treatment of asthma and to relieve symptoms of seasonal allergies. It is usually administered orally. Montelukast blocks the action of leukotriene D4 on the cysteinyl leukotriene receptor CysLT1 in the lungs and bronchial tubes by binding to it. This reduces the bronchoconstriction otherwise caused by the leukotriene, and results in less inflammation. Because of its method of operation, it is not useful for the treatment of acute asthma attacks. Again because of its very specific locus of operation, it does not interact with other allergy medications such as theophylline. Montelukast is marketed in United States and many other countries by Merck & Co. with the brand name Singulair®. It is available as oral tablets, chewable tablets, and oral granules. In India and other countries, it is also marketed under the brand name Montair®, produced by Indian company Cipla.


>  <Pathways>
GPCR/G Protein

>  <Target>
Leukotriene Receptor

>  <Receptor>
CysLTR1

>  <Reference>
1. Zhang YJ, et al. Acta Pharmacol Sin. 2004 Oct;25(10):1341-6.

$$$$
960203-27-4 
  Mrv1561503291623562D          

 22 23  0  0  0  0            999 V2000
   -0.2722    3.4571    0.0000 C   0  0  0  0  0  0  0  0  0  0  0  0
   -0.2722    2.6321    0.0000 C   0  0  0  0  0  0  0  0  0  0  0  0
    0.4423    2.2196    0.0000 C   0  0  0  0  0  0  0  0  0  0  0  0
    0.4423    1.3946    0.0000 C   0  0  0  0  0  0  0  0  0  0  0  0
   -0.2722    0.9821    0.0000 C   0  0  0  0  0  0  0  0  0  0  0  0
   -0.9867    1.3946    0.0000 C   0  0  0  0  0  0  0  0  0  0  0  0
   -0.9867    2.2196    0.0000 C   0  0  0  0  0  0  0  0  0  0  0  0
   -0.2722    0.1571    0.0000 S   0  0  0  0  0  0  0  0  0  0  0  0
    0.4423   -0.2554    0.0000 C   0  0  0  0  0  0  0  0  0  0  0  0
    1.1568    0.1571    0.0000 C   0  0  0  0  0  0  0  0  0  0  0  0
    1.8712   -0.2554    0.0000 C   0  0  0  0  0  0  0  0  0  0  0  0
    1.8712   -1.0804    0.0000 C   0  0  0  0  0  0  0  0  0  0  0  0
    1.1568   -1.4929    0.0000 C   0  0  0  0  0  0  0  0  0  0  0  0
    0.4423   -1.0804    0.0000 C   0  0  0  0  0  0  0  0  0  0  0  0
   -0.2722   -1.4929    0.0000 N   0  0  0  0  0  0  0  0  0  0  0  0
   -0.2722   -2.3179    0.0000 C   0  0  0  0  0  0  0  0  0  0  0  0
   -0.9867   -2.7304    0.0000 C   0  0  0  0  0  0  0  0  0  0  0  0
   -1.7011   -2.3179    0.0000 N   0  0  0  0  0  0  0  0  0  0  0  0
   -1.7011   -1.4929    0.0000 C   0  0  0  0  0  0  0  0  0  0  0  0
   -0.9867   -1.0804    0.0000 C   0  0  0  0  0  0  0  0  0  0  0  0
    1.1568    0.9821    0.0000 C   0  0  0  0  0  0  0  0  0  0  0  0
    3.8748    0.0000    0.0000 Br  0  0  0  0  0  0  0  0  0  0  0  0
  1  2  1  0  0  0  0
  2  3  2  0  0  0  0
  3  4  1  0  0  0  0
  4  5  2  0  0  0  0
  5  6  1  0  0  0  0
  6  7  2  0  0  0  0
  2  7  1  0  0  0  0
  5  8  1  0  0  0  0
  8  9  1  0  0  0  0
  9 10  2  0  0  0  0
 10 11  1  0  0  0  0
 11 12  2  0  0  0  0
 12 13  1  0  0  0  0
 13 14  2  0  0  0  0
  9 14  1  0  0  0  0
 14 15  1  0  0  0  0
 15 16  1  0  0  0  0
 16 17  1  0  0  0  0
 17 18  1  0  0  0  0
 18 19  1  0  0  0  0
 19 20  1  0  0  0  0
 15 20  1  0  0  0  0
  4 21  1  0  0  0  0
M  END
>  <Name>
Vortioxetine (Lu AA21004) HBr

>  <CAS>
960203-27-4 

>  <Formula>
C18H22N2S.HBr

>  <MolWt>
379.36 

>  <Bioactivity>
Vortioxetine (Lu AA21004) is a multimodal serotonergic agent, inhibits 5-HT1A, 5-HT1B, 5-HT3A, 5-HT7 receptor and SERT with IC50 of 15 nM, 33 nM, 3.7 nM, 19 nM and 1.6 nM, respectively.

>  <Pathways>
Neuroscience

>  <Target>
5-HT Receptor modulator

>  <Receptor>
5-HT1A, 5-HT1B, 5-HT3A, 5-HT7 receptor, SERT 

>  <Reference>
1. Bang-Andersen B, et al. J Med Chem, 2011, 54(9), 3206-3221.

$$$$
T1591L
  Mrv1561503291623562D          

 17 18  0  0  0  0            999 V2000
    0.7145   -0.4125    0.0000 C   0  0  0  0  0  0  0  0  0  0  0  0
    0.7145   -1.2375    0.0000 C   0  0  0  0  0  0  0  0  0  0  0  0
    1.3819   -1.7224    0.0000 O   0  0  0  0  0  0  0  0  0  0  0  0
    1.1270   -2.5070    0.0000 C   0  0  0  0  0  0  0  0  0  0  0  0
    1.6119   -3.1745    0.0000 N   0  0  0  0  0  0  0  0  0  0  0  0
    2.4324   -3.0882    0.0000 C   0  0  0  0  0  0  0  0  0  0  0  0
    2.9173   -3.7557    0.0000 N   0  0  0  0  0  0  0  0  0  0  0  0
    2.5817   -4.5094    0.0000 C   0  0  0  0  0  0  0  0  0  0  0  0
    3.0667   -5.1768    0.0000 N   0  0  0  0  0  0  0  0  0  0  0  0
    1.7613   -4.5956    0.0000 C   0  0  0  0  0  0  0  0  0  0  0  0
    1.2763   -3.9282    0.0000 C   0  0  0  0  0  0  0  0  0  0  0  0
    2.7679   -2.3346    0.0000 O   0  0  0  0  0  0  0  0  0  0  0  0
    0.3020   -2.5070    0.0000 C   0  0  0  0  0  0  0  0  0  0  0  0
    0.0470   -1.7224    0.0000 C   0  0  0  0  0  0  0  0  0  0  0  0
   -0.7376   -1.4675    0.0000 O   0  0  0  0  0  0  0  0  0  0  0  0
   -0.1830   -3.1745    0.0000 O   0  0  0  0  0  0  0  0  0  0  0  0
   -0.0000    0.0000    0.0000 O   0  0  0  0  0  0  0  0  0  0  0  0
  1  2  1  0  0  0  0
  2  3  1  0  0  0  0
  3  4  1  0  0  0  0
  4  5  1  0  0  0  0
  5  6  1  0  0  0  0
  6  7  1  0  0  0  0
  7  8  2  0  0  0  0
  8  9  1  0  0  0  0
  8 10  1  0  0  0  0
 10 11  2  0  0  0  0
  5 11  1  0  0  0  0
  6 12  2  0  0  0  0
  4 13  1  0  0  0  0
 13 14  1  0  0  0  0
  2 14  1  0  0  0  0
 14 15  1  0  0  0  0
 13 16  1  0  0  0  0
  1 17  1  0  0  0  0
M  END
>  <Name>
Cytidine

>  <CAS>
65-46-3

>  <Formula>
C9H13N3O5

>  <MolWt>
243.22 

>  <Bioactivity>
A pyrimidine nucleoside that is composed of the base CYTOSINE linked to the five-carbon sugar D-RIBOSE. 

>  <Pathways>
DNA Damage/DNA Repair

>  <Target>
Nucleoside Antimetabolite/Analogue

>  <Receptor>
Nucleoside Analogue

>  <Reference>
1. Jonas DA, et al. Ann Nutr Metab. 2001; 45(6):235-54.

$$$$
985-13-7
  Mrv1561503291623562D          

 31 31  0  0  0  0            999 V2000
    0.4125    0.0000    0.0000 H   0  3  0  0  0  0  0  0  0  0  0  0
    5.6275   -0.5547    0.0000 C   0  0  0  0  0  0  0  0  0  0  0  0
    6.3420   -0.9672    0.0000 C   0  0  0  0  0  0  0  0  0  0  0  0
    7.0565   -0.5547    0.0000 C   0  0  0  0  0  0  0  0  0  0  0  0
    7.7709   -0.9672    0.0000 N   0  0  0  0  0  0  0  0  0  0  0  0
    7.7709   -1.7922    0.0000 C   0  0  0  0  0  0  0  0  0  0  0  0
    7.0565   -2.2047    0.0000 C   0  0  0  0  0  0  0  0  0  0  0  0
    6.3420   -1.7922    0.0000 C   0  0  0  0  0  0  0  0  0  0  0  0
    5.6275   -2.2047    0.0000 C   0  0  0  0  0  0  0  0  0  0  0  0
    4.9131   -1.7922    0.0000 C   0  0  0  0  0  0  0  0  0  0  0  0
    4.9131   -0.9672    0.0000 C   0  0  0  0  0  0  0  0  0  0  0  0
    4.1986   -0.5547    0.0000 O   0  0  0  0  0  0  0  0  0  0  0  0
    3.4841   -0.9672    0.0000 C   0  0  0  0  0  0  0  0  0  0  0  0
    2.7696   -0.5547    0.0000 C   0  0  0  0  0  0  0  0  0  0  0  0
    4.1986   -2.2047    0.0000 O   0  0  0  0  0  0  0  0  0  0  0  0
    3.4841   -1.7922    0.0000 C   0  0  0  0  0  0  0  0  0  0  0  0
    2.7696   -2.2047    0.0000 C   0  0  0  0  0  0  0  0  0  0  0  0
    7.0565    0.2703    0.0000 C   0  0  0  0  0  0  0  0  0  0  0  0
    7.7709    0.6828    0.0000 C   0  0  0  0  0  0  0  0  0  0  0  0
    7.7709    1.5078    0.0000 C   0  0  0  0  0  0  0  0  0  0  0  0
    8.4854    1.9203    0.0000 C   0  0  0  0  0  0  0  0  0  0  0  0
    9.1999    1.5078    0.0000 C   0  0  0  0  0  0  0  0  0  0  0  0
    9.9144    1.9203    0.0000 O   0  0  0  0  0  0  0  0  0  0  0  0
   10.6288    1.5078    0.0000 C   0  0  0  0  0  0  0  0  0  0  0  0
   11.3433    1.9203    0.0000 C   0  0  0  0  0  0  0  0  0  0  0  0
    9.1999    0.6828    0.0000 C   0  0  0  0  0  0  0  0  0  0  0  0
    8.4854    0.2703    0.0000 C   0  0  0  0  0  0  0  0  0  0  0  0
    8.4854    2.7453    0.0000 O   0  0  0  0  0  0  0  0  0  0  0  0
    7.7709    3.1578    0.0000 C   0  0  0  0  0  0  0  0  0  0  0  0
    7.7709    3.9828    0.0000 C   0  0  0  0  0  0  0  0  0  0  0  0
   -0.4125    0.0000    0.0000 Cl  0  5  0  0  0  0  0  0  0  0  0  0
  2  3  2  0  0  0  0
  3  4  1  0  0  0  0
  4  5  2  0  0  0  0
  5  6  1  0  0  0  0
  6  7  2  0  0  0  0
  7  8  1  0  0  0  0
  3  8  1  0  0  0  0
  8  9  2  0  0  0  0
  9 10  1  0  0  0  0
 10 11  2  0  0  0  0
  2 11  1  0  0  0  0
 11 12  1  0  0  0  0
 12 13  1  0  0  0  0
 13 14  1  0  0  0  0
 10 15  1  0  0  0  0
 15 16  1  0  0  0  0
 16 17  1  0  0  0  0
  4 18  1  0  0  0  0
 18 19  1  0  0  0  0
 19 20  2  0  0  0  0
 20 21  1  0  0  0  0
 21 22  2  0  0  0  0
 22 23  1  0  0  0  0
 23 24  1  0  0  0  0
 24 25  1  0  0  0  0
 22 26  1  0  0  0  0
 26 27  2  0  0  0  0
 19 27  1  0  0  0  0
 21 28  1  0  0  0  0
 28 29  1  0  0  0  0
 29 30  1  0  0  0  0
M  CHG  2   1   1  31  -1
M  END
>  <Name>
Ethaverine HCl

>  <CAS>
985-13-7

>  <Formula>
C24H30CINO4

>  <MolWt>
431.96 

>  <Bioactivity>
Ethaverine, a homologue of papaverine, has inhibitory effects  on monoamine oxidase activity in mouse brain. [1]

>  <Pathways>
Enzyme

>  <Target>
MAO inhibitor

>  <Receptor>
MAO

>  <Reference>
1. Lee SS, et al. Biol Pharm Bull. 2001 Jul;24(7):838-40.

$$$$
T0856L
  Mrv1561503291623562D          

 21 24  0  0  1  0            999 V2000
    1.5596   -2.8327    0.0000 C   0  0  1  0  0  0  0  0  0  0  0  0
    2.0914   -3.4634    0.0000 C   0  0  1  0  0  0  0  0  0  0  0  0
    2.9035   -3.3182    0.0000 C   0  0  2  0  0  0  0  0  0  0  0  0
    3.1838   -2.5422    0.0000 C   0  0  0  0  0  0  0  0  0  0  0  0
    2.6520   -1.9115    0.0000 C   0  0  0  0  0  0  0  0  0  0  0  0
    1.8399   -2.0567    0.0000 C   0  0  0  0  0  0  0  0  0  0  0  0
    3.9960   -2.3970    0.0000 C   0  0  0  0  0  0  0  0  0  0  0  0
    4.5278   -3.0277    0.0000 C   0  0  1  0  0  0  0  0  0  0  0  0
    5.3399   -2.8825    0.0000 O   0  0  0  0  0  0  0  0  0  0  0  0
    4.2475   -3.8037    0.0000 C   0  0  0  0  0  0  0  0  0  0  0  0
    3.4354   -3.9489    0.0000 C   0  0  0  0  0  0  0  0  0  0  0  0
    2.6232   -4.0941    0.0000 C   0  0  0  0  0  0  0  0  0  0  0  0
    1.8111   -4.2393    0.0000 C   0  0  0  0  0  0  0  0  0  0  0  0
    0.9990   -4.3845    0.0000 C   0  0  0  0  0  0  0  0  0  0  0  0
    0.4672   -3.7538    0.0000 C   0  0  1  0  0  0  0  0  0  0  0  0
    0.7475   -2.9779    0.0000 C   0  0  1  0  0  0  0  0  0  0  0  0
    0.0962   -2.4715    0.0000 C   0  0  0  0  0  0  0  0  0  0  0  0
   -0.5867   -2.9345    0.0000 C   0  0  0  0  0  0  0  0  0  0  0  0
   -0.3574   -3.7270    0.0000 C   0  0  0  0  0  0  0  0  0  0  0  0
   -0.8637   -4.3783    0.0000 O   0  0  0  0  0  0  0  0  0  0  0  0
    0.1073   -4.4962    0.0000 C   0  0  0  0  0  0  0  0  0  0  0  0
  1  2  1  0  0  0  0
  2  3  1  0  0  0  0
  3  4  1  0  0  0  0
  4  5  2  0  0  0  0
  5  6  1  0  0  0  0
  1  6  1  6  0  0  0
  4  7  1  0  0  0  0
  7  8  1  0  0  0  0
  8  9  1  1  0  0  0
  8 10  1  0  0  0  0
 10 11  1  0  0  0  0
  3 11  1  0  0  0  0
  3 12  1  1  0  0  0
  2 13  1  1  0  0  0
 13 14  1  0  0  0  0
 14 15  1  0  0  0  0
 15 16  1  0  0  0  0
  1 16  1  0  0  0  0
 16 17  1  1  0  0  0
 17 18  1  0  0  0  0
 18 19  1  0  0  0  0
 15 19  1  0  0  0  0
 19 20  2  0  0  0  0
 15 21  1  1  0  0  0
M  END
>  <Name>
Dehydroepiandrosterone

>  <CAS>
53-43-0

>  <Formula>
C19H28O2

>  <MolWt>
288.42 

>  <Bioactivity>
Dehydroepiandrosterone (DHEA) is a major C19 steroid produced by the adrenal cortex. It is also produced in small quantities in the testis and the ovary. Dehydroepiandrosterone (DHEA) can be converted to testosterone; androstenedione; estradiol; and estrone. Most of DHEA is sulfated (dehydroepiandrosterone sulfate) before secretion.

>  <Pathways>
Endocrinology/ Hormones; Neuroscience;Metabolism

>  <Target>
GABAR agonist; Androgen receptor agonist; GluR;PPAR activator

>  <Receptor>
GABA-A receptor;Androgen receptor ;NMDAR;NR;PPAR alpha;Bile salt sulfotransferase

>  <Reference>
1. Chen F, et al. Endocrinology. 2005 Nov; 146(11):4568-76.

$$$$
206658-92-6
  Mrv1561503291623562D          

 17 17  0  0  0  0            999 V2000
   -2.1434   -0.3025    0.0000 C   0  0  0  0  0  0  0  0  0  0  0  0
   -2.1434    0.5225    0.0000 C   0  0  0  0  0  0  0  0  0  0  0  0
   -1.4289    0.9350    0.0000 C   0  0  0  0  0  0  0  0  0  0  0  0
   -0.7145    0.5225    0.0000 C   0  0  0  0  0  0  0  0  0  0  0  0
   -0.0000    0.9350    0.0000 N   0  0  0  0  0  0  0  0  0  0  0  0
    0.7145    0.5225    0.0000 C   0  0  0  0  0  0  0  0  0  0  0  0
    1.4289    0.9350    0.0000 C   0  0  0  0  0  0  0  0  0  0  0  0
    2.1434    0.5225    0.0000 C   0  0  0  0  0  0  0  0  0  0  0  0
    2.1434   -0.3025    0.0000 C   0  0  0  0  0  0  0  0  0  0  0  0
    1.4289   -0.7150    0.0000 C   0  0  0  0  0  0  0  0  0  0  0  0
    0.7145   -0.3025    0.0000 C   0  0  0  0  0  0  0  0  0  0  0  0
   -0.0000   -0.7150    0.0000 C   0  0  0  0  0  0  0  0  0  0  0  0
   -0.7145   -0.3025    0.0000 C   0  0  0  0  0  0  0  0  0  0  0  0
   -1.4289   -0.7150    0.0000 C   0  0  0  0  0  0  0  0  0  0  0  0
   -0.0000   -1.5400    0.0000 N   0  0  0  0  0  0  0  0  0  0  0  0
    4.5006    0.0000    0.0000 O   0  0  0  0  0  0  0  0  0  0  0  0
    0.0000   -3.1900    0.0000 Cl  0  0  0  0  0  0  0  0  0  0  0  0
  1  2  1  0  0  0  0
  2  3  1  0  0  0  0
  3  4  1  0  0  0  0
  4  5  2  0  0  0  0
  5  6  1  0  0  0  0
  6  7  2  0  0  0  0
  7  8  1  0  0  0  0
  8  9  2  0  0  0  0
  9 10  1  0  0  0  0
 10 11  2  0  0  0  0
  6 11  1  0  0  0  0
 11 12  1  0  0  0  0
 12 13  2  0  0  0  0
  4 13  1  0  0  0  0
 13 14  1  0  0  0  0
  1 14  1  0  0  0  0
 12 15  1  0  0  0  0
M  END
>  <Name>
Tacrine HCl hydrate

>  <CAS>
206658-92-6

>  <Formula>
C13H14N2.HCl.XH2O

>  <MolWt>
234.72 

>  <Bioactivity>
A cholinesterase inhibitor that crosses the blood-brain barrier. Tacrine has been used to counter the effects of muscle relaxants, as a respiratory stimulant, and in the treatment of Alzheimer's disease and other central nervous system disorders

>  <Pathways>
Neuroscience

>  <Target>
ChE inhibitor

>  <Receptor>
ChE

>  <Reference>
1. Wang H, et al. Zhongguo Yao Li Xue Bao. 1998, 19(1):27-30. 

$$$$
T2187
  Mrv1561503291623562D          

 11 11  0  0  0  0            999 V2000
    1.4289    0.8250    0.0000 C   0  0  0  0  0  0  0  0  0  0  0  0
    1.4289    0.0000    0.0000 C   0  0  0  0  0  0  0  0  0  0  0  0
    0.7145   -0.4125    0.0000 C   0  0  0  0  0  0  0  0  0  0  0  0
   -0.0000    0.0000    0.0000 C   0  0  0  0  0  0  0  0  0  0  0  0
   -0.0000    0.8250    0.0000 C   0  0  0  0  0  0  0  0  0  0  0  0
    0.7145    1.2375    0.0000 C   0  0  0  0  0  0  0  0  0  0  0  0
    0.7145    2.0625    0.0000 N   0  0  0  0  0  0  0  0  0  0  0  0
   -0.7145    1.2375    0.0000 S   0  0  0  0  0  0  0  0  0  0  0  0
   -1.4289    1.6500    0.0000 O   0  0  0  0  0  0  0  0  0  0  0  0
   -0.3020    1.9520    0.0000 O   0  0  0  0  0  0  0  0  0  0  0  0
   -1.1270    0.5230    0.0000 N   0  0  0  0  0  0  0  0  0  0  0  0
  1  2  2  0  0  0  0
  2  3  1  0  0  0  0
  3  4  2  0  0  0  0
  4  5  1  0  0  0  0
  5  6  2  0  0  0  0
  1  6  1  0  0  0  0
  6  7  1  0  0  0  0
  5  8  1  0  0  0  0
  8  9  2  0  0  0  0
  8 10  2  0  0  0  0
  8 11  1  0  0  0  0
M  END
>  <Name>
2-Aminobenzenesulfonamide

>  <CAS>
3306-62-5

>  <Formula>
C6H8N2O2S

>  <MolWt>
172.21 

>  <Bioactivity>
Sulfanilamide is a molecule containing the sulfonamide functional group attached to an aniline. 

>  <Pathways>
Enzyme

>  <Target>
DHPS inhibitor

>  <Receptor>
DHPS

>  <Reference>
1. RAFFA L. Farmaco Sci. 1957;12(5):387-93.

$$$$
T2201
  Mrv1561503291623562D          

 11 11  0  0  0  0            999 V2000
   -1.4858   -0.1650    0.0000 C   0  0  0  0  0  0  0  0  0  0  0  0
   -1.0009   -0.8324    0.0000 N   0  0  0  0  0  0  0  0  0  0  0  0
   -0.2163   -0.5775    0.0000 C   0  0  0  0  0  0  0  0  0  0  0  0
   -0.2163    0.2475    0.0000 C   0  0  0  0  0  0  0  0  0  0  0  0
   -1.0009    0.5024    0.0000 N   0  0  0  0  0  0  0  0  0  0  0  0
    0.4982    0.6600    0.0000 C   0  0  0  0  0  0  0  0  0  0  0  0
    0.4982    1.4850    0.0000 S   0  0  0  0  0  0  0  0  0  0  0  0
    1.2127    0.2475    0.0000 N   0  0  0  0  0  0  0  0  0  0  0  0
    1.2127   -0.5775    0.0000 C   0  0  0  0  0  0  0  0  0  0  0  0
    0.4982   -0.9900    0.0000 N   0  0  0  0  0  0  0  0  0  0  0  0
    3.5698    0.0000    0.0000 O   0  0  0  0  0  0  0  0  0  0  0  0
  1  2  2  0  0  0  0
  2  3  1  0  0  0  0
  3  4  2  0  0  0  0
  4  5  1  0  0  0  0
  1  5  1  0  0  0  0
  4  6  1  0  0  0  0
  6  7  2  0  0  0  0
  6  8  1  0  0  0  0
  8  9  2  0  0  0  0
  9 10  1  0  0  0  0
  3 10  1  0  0  0  0
M  END
>  <Name>
6-Mercaptopurine monohydrate

>  <CAS>
6112-76-1

>  <Formula>
C5H4N4S

>  <MolWt>
170.19 

>  <Bioactivity>
ercaptopurine is a widely used antileukemic agent and immunosuppressive drug that inhibits de novo purine synthesis through incorporation of thiopurine methyltransferase metabolites into DNA and RNA.

>  <Pathways>
DNA Damage/DNA Repair

>  <Target>
PRPP Amidotransferase inhibitor ;DNA Synthesis inhibitor

>  <Receptor>
PRPP Amidotransferase ;DNA systhesis

>  <Reference>
1. Sahasranaman S, et al. Eur J Clin Pharmacol, 2008, 64(8), 753-767.

$$$$
T0144
  Mrv1561503291623562D          

 20 21  0  0  0  0            999 V2000
    0.7145   -3.7125    0.0000 C   0  0  0  0  0  0  0  0  0  0  0  0
    0.7145   -2.8875    0.0000 C   0  0  0  0  0  0  0  0  0  0  0  0
    1.4289   -2.4750    0.0000 C   0  0  0  0  0  0  0  0  0  0  0  0
    2.1434   -2.8875    0.0000 C   0  0  0  0  0  0  0  0  0  0  0  0
    2.1434   -3.7125    0.0000 C   0  0  0  0  0  0  0  0  0  0  0  0
    1.4289   -4.1250    0.0000 C   0  0  0  0  0  0  0  0  0  0  0  0
    1.4289   -1.6500    0.0000 C   0  0  0  0  0  0  0  0  0  0  0  0
    2.1434   -1.2375    0.0000 O   0  0  0  0  0  0  0  0  0  0  0  0
    0.7145   -1.2375    0.0000 O   0  0  0  0  0  0  0  0  0  0  0  0
   -0.0000   -2.4750    0.0000 C   0  0  0  0  0  0  0  0  0  0  0  0
   -0.7145   -2.8875    0.0000 N   0  0  0  0  0  0  0  0  0  0  0  0
   -1.4289   -2.4750    0.0000 C   0  0  0  0  0  0  0  0  0  0  0  0
   -2.1434   -2.8875    0.0000 C   0  0  0  0  0  0  0  0  0  0  0  0
   -2.8579   -2.4750    0.0000 C   0  0  0  0  0  0  0  0  0  0  0  0
   -2.8579   -1.6500    0.0000 C   0  0  0  0  0  0  0  0  0  0  0  0
   -2.1434   -1.2375    0.0000 C   0  0  0  0  0  0  0  0  0  0  0  0
   -1.4289   -1.6500    0.0000 C   0  0  0  0  0  0  0  0  0  0  0  0
   -0.7145   -1.2375    0.0000 C   0  0  0  0  0  0  0  0  0  0  0  0
   -2.1434   -3.7125    0.0000 C   0  0  0  0  0  0  0  0  0  0  0  0
   -0.0000   -1.6500    0.0000 O   0  0  0  0  0  0  0  0  0  0  0  0
  1  2  2  0  0  0  0
  2  3  1  0  0  0  0
  3  4  2  0  0  0  0
  4  5  1  0  0  0  0
  5  6  2  0  0  0  0
  1  6  1  0  0  0  0
  3  7  1  0  0  0  0
  7  8  1  0  0  0  0
  7  9  2  0  0  0  0
  2 10  1  0  0  0  0
 10 11  1  0  0  0  0
 11 12  1  0  0  0  0
 12 13  2  0  0  0  0
 13 14  1  0  0  0  0
 14 15  2  0  0  0  0
 15 16  1  0  0  0  0
 16 17  2  0  0  0  0
 12 17  1  0  0  0  0
 17 18  1  0  0  0  0
 13 19  1  0  0  0  0
 10 20  2  0  0  0  0
M  END
>  <Name>
Ftaxilide

>  <CAS>
19368-18-4

>  <Formula>
C16H15NO3

>  <MolWt>
269.30 

>  <Bioactivity>
Ftaxilide has the property of antibacterial, used as antiseptic.

>  <Pathways>
Microbiology & Virology

>  <Target>
Antibacterial

>  <Receptor>
Others

>  <Reference>
N

$$$$
T2183
  Mrv1561503291623562D          

 27 29  0  0  1  0            999 V2000
   -1.8489    0.4957    0.0000 C   0  0  2  0  0  0  0  0  0  0  0  0
   -2.0806   -0.4312    0.0000 N   0  3  0  0  0  0  0  0  0  0  0  0
   -1.8489   -1.3580    0.0000 C   0  0  2  0  0  0  0  0  0  0  0  0
   -2.4939   -0.8437    0.0000 C   0  0  2  0  0  0  0  0  0  0  0  0
   -3.2084   -0.4312    0.0000 O   0  0  0  0  0  0  0  0  0  0  0  0
   -2.4939   -0.0187    0.0000 C   0  0  2  0  0  0  0  0  0  0  0  0
   -1.0446   -1.1745    0.0000 C   0  0  0  0  0  0  0  0  0  0  0  0
   -0.6866   -0.4312    0.0000 C   0  0  0  0  0  0  0  0  0  0  0  0
    0.2259   -0.5364    0.0000 O   0  0  0  0  0  0  0  0  0  0  0  0
    0.9600   -0.0738    0.0000 C   0  0  0  0  0  0  0  0  0  0  0  0
    0.2122    0.2747    0.0000 O   0  0  0  0  0  0  0  0  0  0  0  0
    1.6407    0.4031    0.0000 C   0  0  0  0  0  0  0  0  0  0  0  0
    2.1210   -0.3128    0.0000 C   0  0  0  0  0  0  0  0  0  0  0  0
    1.7575   -1.0534    0.0000 O   0  0  0  0  0  0  0  0  0  0  0  0
    2.0042    1.1437    0.0000 C   0  0  0  0  0  0  0  0  0  0  0  0
    1.5446    1.8289    0.0000 C   0  0  0  0  0  0  0  0  0  0  0  0
    1.9082    2.5694    0.0000 C   0  0  0  0  0  0  0  0  0  0  0  0
    2.7313    2.6249    0.0000 C   0  0  0  0  0  0  0  0  0  0  0  0
    3.1909    1.9398    0.0000 C   0  0  0  0  0  0  0  0  0  0  0  0
    2.8274    1.1992    0.0000 C   0  0  0  0  0  0  0  0  0  0  0  0
   -1.0446    0.3121    0.0000 C   0  0  0  0  0  0  0  0  0  0  0  0
   -1.2251   -0.6615    0.0000 C   0  0  0  0  0  0  0  0  0  0  0  0
   -1.2682   -1.7025    0.0000 C   0  0  0  0  0  0  0  0  0  0  0  0
   -0.5714   -2.1442    0.0000 C   0  0  0  0  0  0  0  0  0  0  0  0
    0.1595   -1.7616    0.0000 C   0  0  0  0  0  0  0  0  0  0  0  0
   -1.4682    0.1428    0.0000 C   0  0  0  0  0  0  0  0  0  0  0  0
    5.5480    0.0000    0.0000 Br  0  5  0  0  0  0  0  0  0  0  0  0
  1  2  1  0  0  0  0
  2  3  1  0  0  0  0
  3  4  1  0  0  0  0
  4  5  1  6  0  0  0
  6  5  1  6  0  0  0
  1  6  1  0  0  0  0
  4  6  1  0  0  0  0
  3  7  1  1  0  0  0
  7  8  1  0  0  0  0
  8  9  1  0  0  0  0
  9 10  1  0  0  0  0
 10 11  2  0  0  0  0
 10 12  1  0  0  0  0
 12 13  1  0  0  0  0
 13 14  1  0  0  0  0
 12 15  1  0  0  0  0
 15 16  2  0  0  0  0
 16 17  1  0  0  0  0
 17 18  2  0  0  0  0
 18 19  1  0  0  0  0
 19 20  2  0  0  0  0
 15 20  1  0  0  0  0
  8 21  1  0  0  0  0
  1 21  1  6  0  0  0
  2 22  1  0  0  0  0
 22 23  1  0  0  0  0
 23 24  1  0  0  0  0
 24 25  1  0  0  0  0
  2 26  1  0  0  0  0
M  CHG  2   2   1  27  -1
M  END
>  <Name>
Scopolamine butylbromide

>  <CAS>
149-64-4

>  <Formula>
C21H30NO4.Br

>  <MolWt>
440.37 

>  <Bioactivity>
Scopolamine butylbromide is a competitive antagonist of  muscarinic acetylcholine receptor (mAChR) with an IC50 of 55.3 ± 4.3 nM.

>  <Pathways>
Neuroscience

>  <Target>
AChR antagonist

>  <Receptor>
mAChR

>  <Reference>
1. Raufman JP, et al. Carcinogenesis. 2011 Sep;32(9):1396-402.

$$$$
6533-00-2
  Mrv1561503291623562D          

 23 26  0  0  1  0            999 V2000
    3.9629    0.9934    0.0000 C   0  0  2  0  0  0  0  0  0  0  0  0
    3.6826    0.2174    0.0000 C   0  0  2  0  0  0  0  0  0  0  0  0
    2.8705    0.0722    0.0000 C   0  0  1  0  0  0  0  0  0  0  0  0
    2.3387    0.7029    0.0000 C   0  0  1  0  0  0  0  0  0  0  0  0
    1.5266    0.5577    0.0000 C   0  0  2  0  0  0  0  0  0  0  0  0
    1.2463   -0.2182    0.0000 C   0  0  0  0  0  0  0  0  0  0  0  0
    0.4342   -0.3634    0.0000 C   0  0  0  0  0  0  0  0  0  0  0  0
   -0.0976    0.2673    0.0000 C   0  0  0  0  0  0  0  0  0  0  0  0
   -0.9098    0.1221    0.0000 O   0  0  0  0  0  0  0  0  0  0  0  0
    0.1827    1.0432    0.0000 C   0  0  0  0  0  0  0  0  0  0  0  0
    0.9948    1.1884    0.0000 C   0  0  0  0  0  0  0  0  0  0  0  0
    1.7781   -0.8489    0.0000 C   0  0  0  0  0  0  0  0  0  0  0  0
    2.5902   -0.7037    0.0000 C   0  0  0  0  0  0  0  0  0  0  0  0
    2.6190    1.4789    0.0000 C   0  0  0  0  0  0  0  0  0  0  0  0
    3.4311    1.6241    0.0000 C   0  0  0  0  0  0  0  0  0  0  0  0
    4.3340   -0.2889    0.0000 C   0  0  0  0  0  0  0  0  0  0  0  0
    5.0168    0.1741    0.0000 C   0  0  0  0  0  0  0  0  0  0  0  0
    4.7875    0.9666    0.0000 C   0  0  1  0  0  0  0  0  0  0  0  0
    4.9089    1.7826    0.0000 C   0  0  0  0  0  0  0  0  0  0  0  0
    5.0303    2.5986    0.0000 C   0  0  0  0  0  0  0  0  0  0  0  0
    5.5484    1.2854    0.0000 O   0  0  0  0  0  0  0  0  0  0  0  0
    4.3228    1.7357    0.0000 C   0  0  0  0  0  0  0  0  0  0  0  0
    3.8598    2.4186    0.0000 C   0  0  0  0  0  0  0  0  0  0  0  0
  1  2  1  0  0  0  0
  2  3  1  0  0  0  0
  3  4  1  0  0  0  0
  4  5  1  0  0  0  0
  5  6  1  0  0  0  0
  6  7  2  0  0  0  0
  7  8  1  0  0  0  0
  8  9  2  0  0  0  0
  8 10  1  0  0  0  0
 10 11  1  0  0  0  0
  5 11  1  6  0  0  0
  6 12  1  0  0  0  0
 12 13  1  0  0  0  0
  3 13  1  6  0  0  0
  4 14  1  1  0  0  0
 14 15  1  0  0  0  0
  1 15  1  0  0  0  0
  2 16  1  1  0  0  0
 16 17  1  0  0  0  0
 17 18  1  0  0  0  0
  1 18  1  0  0  0  0
 18 19  1  6  0  0  0
 19 20  3  0  0  0  0
 18 21  1  1  0  0  0
  1 22  1  1  0  0  0
 22 23  1  0  0  0  0
M  END
>  <Name>
Norgestrel

>  <CAS>
6533-00-2

>  <Formula>
C21H28O2

>  <MolWt>
312.45 

>  <Bioactivity>
Norgestrel is a synthetic progestin commonly used alone or in combination with an estrogen for contraception. Norgestrel suppresses the secretion of luteinizing and follicle-stimulating hormones (LH and FSH), thickens cervical mucus, and slows the transit of ova through the fallopian tubes.

>  <Pathways>
Endocrinology/ Hormones

>  <Target>
Estrogen/Progestogen Receptor agonist

>  <Receptor>
Estrogen/Progestogen receptor

>  <Reference>
1. Maruo T, et al. Co ntraception. 2007 Jun; 75(6 Suppl):S99-103. 

$$$$
T0104
  Mrv1561503291623562D          

 32 31  0  0  0  0            999 V2000
    0.4125    0.0000    0.0000 H   0  3  0  0  0  0  0  0  0  0  0  0
    7.9947   -1.2819    0.0000 C   0  0  0  0  0  0  0  0  0  0  0  0
    7.2803   -0.8694    0.0000 C   0  0  0  0  0  0  0  0  0  0  0  0
    6.4956   -1.1243    0.0000 N   0  0  0  0  0  0  0  0  0  0  0  0
    6.2407   -1.9090    0.0000 C   0  0  0  0  0  0  0  0  0  0  0  0
    6.0107   -0.4569    0.0000 C   0  0  0  0  0  0  0  0  0  0  0  0
    6.4956    0.2105    0.0000 C   0  0  0  0  0  0  0  0  0  0  0  0
    6.2407    0.9952    0.0000 C   0  0  0  0  0  0  0  0  0  0  0  0
    6.7927    1.6083    0.0000 O   0  0  0  0  0  0  0  0  0  0  0  0
    6.5378    2.3929    0.0000 C   0  0  0  0  0  0  0  0  0  0  0  0
    7.0898    3.0060    0.0000 C   0  0  0  0  0  0  0  0  0  0  0  0
    5.4337    1.1667    0.0000 O   0  0  0  0  0  0  0  0  0  0  0  0
    7.2803   -0.0444    0.0000 C   0  0  0  0  0  0  0  0  0  0  0  0
    7.9947    0.3681    0.0000 C   0  0  0  0  0  0  0  0  0  0  0  0
    7.9947    1.1931    0.0000 C   0  0  0  0  0  0  0  0  0  0  0  0
    8.7092    1.6056    0.0000 N   0  0  0  0  0  0  0  0  0  0  0  0
    8.7092    2.4306    0.0000 C   0  0  0  0  0  0  0  0  0  0  0  0
    9.4237    1.1931    0.0000 C   0  0  0  0  0  0  0  0  0  0  0  0
    8.7092   -0.0444    0.0000 C   0  0  0  0  0  0  0  0  0  0  0  0
    8.7092   -0.8694    0.0000 C   0  0  0  0  0  0  0  0  0  0  0  0
    9.4237   -1.2819    0.0000 Br  0  0  0  0  0  0  0  0  0  0  0  0
    9.4237    0.3681    0.0000 O   0  0  0  0  0  0  0  0  0  0  0  0
    5.1857   -0.4569    0.0000 C   0  0  0  0  0  0  0  0  0  0  0  0
    4.7732   -1.1714    0.0000 S   0  0  0  0  0  0  0  0  0  0  0  0
    3.9482   -1.1714    0.0000 C   0  0  0  0  0  0  0  0  0  0  0  0
    3.5357   -1.8858    0.0000 C   0  0  0  0  0  0  0  0  0  0  0  0
    2.7107   -1.8858    0.0000 C   0  0  0  0  0  0  0  0  0  0  0  0
    2.2982   -1.1714    0.0000 C   0  0  0  0  0  0  0  0  0  0  0  0
    2.7107   -0.4569    0.0000 C   0  0  0  0  0  0  0  0  0  0  0  0
    3.5357   -0.4569    0.0000 C   0  0  0  0  0  0  0  0  0  0  0  0
   -0.4125    0.0000    0.0000 Cl  0  5  0  0  0  0  0  0  0  0  0  0
    0.0000   -3.5590    0.0000 O   0  0  0  0  0  0  0  0  0  0  0  0
  2  3  2  0  0  0  0
  3  4  1  0  0  0  0
  4  5  1  0  0  0  0
  4  6  1  0  0  0  0
  6  7  2  0  0  0  0
  7  8  1  0  0  0  0
  8  9  1  0  0  0  0
  9 10  1  0  0  0  0
 10 11  1  0  0  0  0
  8 12  2  0  0  0  0
  7 13  1  0  0  0  0
  3 13  1  0  0  0  0
 13 14  2  0  0  0  0
 14 15  1  0  0  0  0
 15 16  1  0  0  0  0
 16 17  1  0  0  0  0
 16 18  1  0  0  0  0
 14 19  1  0  0  0  0
 19 20  2  0  0  0  0
  2 20  1  0  0  0  0
 20 21  1  0  0  0  0
 19 22  1  0  0  0  0
  6 23  1  0  0  0  0
 23 24  1  0  0  0  0
 24 25  1  0  0  0  0
 25 26  2  0  0  0  0
 26 27  1  0  0  0  0
 27 28  2  0  0  0  0
 28 29  1  0  0  0  0
 29 30  2  0  0  0  0
 25 30  1  0  0  0  0
M  CHG  2   1   1  31  -1
M  END
>  <Name>
Arbidol HCl

>  <CAS>
131707-23-8

>  <Formula>
C22H25BrN2O3S.HCl

>  <MolWt>
513.88 

>  <Bioactivity>
Arbidol HCl is an antiviral treatment for influenza infection.

>  <Pathways>
Microbiology & Virology

>  <Target>
Influenza Virus

>  <Receptor>
Influenza A virus

>  <Reference>
1. Wang MZ, et al. Zhongguo Yi Xue Ke Xue Yuan Xue Bao. 2004 Jun;26(3):289-93.

$$$$
39562-70-4
  Mrv1561503291623562D          

 26 27  0  0  0  0            999 V2000
    1.4289   -1.6500    0.0000 C   0  0  0  0  0  0  0  0  0  0  0  0
    1.4289   -2.4750    0.0000 C   0  0  0  0  0  0  0  0  0  0  0  0
    0.7145   -2.8875    0.0000 C   0  0  0  0  0  0  0  0  0  0  0  0
   -0.0000   -2.4750    0.0000 C   0  0  0  0  0  0  0  0  0  0  0  0
   -0.0000   -1.6500    0.0000 C   0  0  0  0  0  0  0  0  0  0  0  0
    0.7145   -1.2375    0.0000 C   0  0  0  0  0  0  0  0  0  0  0  0
    0.7145   -0.4125    0.0000 C   0  0  0  0  0  0  0  0  0  0  0  0
    0.0000    0.0000    0.0000 C   0  0  0  0  0  0  0  0  0  0  0  0
    0.0000    0.8250    0.0000 C   0  0  0  0  0  0  0  0  0  0  0  0
    0.7145    1.2375    0.0000 N   0  0  0  0  0  0  0  0  0  0  0  0
    1.4289    0.8250    0.0000 C   0  0  0  0  0  0  0  0  0  0  0  0
    1.4289   -0.0000    0.0000 C   0  0  0  0  0  0  0  0  0  0  0  0
    2.1434   -0.4125    0.0000 C   0  0  0  0  0  0  0  0  0  0  0  0
    2.8579   -0.0000    0.0000 O   0  0  0  0  0  0  0  0  0  0  0  0
    3.5724   -0.4125    0.0000 C   0  0  0  0  0  0  0  0  0  0  0  0
    2.1434   -1.2375    0.0000 O   0  0  0  0  0  0  0  0  0  0  0  0
    2.1434    1.2375    0.0000 C   0  0  0  0  0  0  0  0  0  0  0  0
   -0.7145    1.2375    0.0000 C   0  0  0  0  0  0  0  0  0  0  0  0
   -0.7145   -0.4125    0.0000 C   0  0  0  0  0  0  0  0  0  0  0  0
   -1.4289    0.0000    0.0000 O   0  0  0  0  0  0  0  0  0  0  0  0
   -2.1434   -0.4125    0.0000 C   0  0  0  0  0  0  0  0  0  0  0  0
   -2.8579    0.0000    0.0000 C   0  0  0  0  0  0  0  0  0  0  0  0
   -0.7145   -1.2375    0.0000 O   0  0  0  0  0  0  0  0  0  0  0  0
    2.1434   -2.8875    0.0000 N   0  3  0  0  0  0  0  0  0  0  0  0
    2.8579   -2.4750    0.0000 O   0  0  0  0  0  0  0  0  0  0  0  0
    2.1434   -3.7125    0.0000 O   0  5  0  0  0  0  0  0  0  0  0  0
  1  2  2  0  0  0  0
  2  3  1  0  0  0  0
  3  4  2  0  0  0  0
  4  5  1  0  0  0  0
  5  6  2  0  0  0  0
  1  6  1  0  0  0  0
  6  7  1  0  0  0  0
  7  8  1  0  0  0  0
  8  9  2  0  0  0  0
  9 10  1  0  0  0  0
 10 11  1  0  0  0  0
 11 12  2  0  0  0  0
  7 12  1  0  0  0  0
 12 13  1  0  0  0  0
 13 14  1  0  0  0  0
 14 15  1  0  0  0  0
 13 16  2  0  0  0  0
 11 17  1  0  0  0  0
  9 18  1  0  0  0  0
  8 19  1  0  0  0  0
 19 20  1  0  0  0  0
 20 21  1  0  0  0  0
 21 22  1  0  0  0  0
 19 23  2  0  0  0  0
  2 24  1  0  0  0  0
 24 25  2  0  0  0  0
 24 26  1  0  0  0  0
M  CHG  2  24   1  26  -1
M  END
>  <Name>
Nitrendipin

>  <CAS>
39562-70-4

>  <Formula>
C18H20N2O6

>  <MolWt>
360.36 

>  <Bioactivity>
A calcium channel blocker with marked vasodilator action. It is an effective antihypertensive agent and differs from other calcium channel blockers in that it does not reduce glomerular filtration rate and is mildly natriuretic, rather than sodium retentive. 

>  <Pathways>
Membrane Transporter/Ion Channel

>  <Target>
Calcium Channel inhibitor

>  <Receptor>
Calcium Channel

>  <Reference>
1. Perez-Reyes E, et al. J Pharmacol Exp Ther. 2009 Feb;328(2):621-7.

$$$$
120202-66-6
  Mrv1561503291623562D          

 26 27  0  0  1  0            999 V2000
    0.7136   -0.0000    0.0000 C   0  0  1  0  0  0  0  0  0  0  0  0
   -0.0009    0.4125    0.0000 N   0  0  0  0  0  0  0  0  0  0  0  0
   -0.7154    0.0000    0.0000 C   0  0  0  0  0  0  0  0  0  0  0  0
   -1.4299    0.4125    0.0000 C   0  0  0  0  0  0  0  0  0  0  0  0
   -1.4299    1.2375    0.0000 C   0  0  0  0  0  0  0  0  0  0  0  0
   -2.2145    1.4924    0.0000 S   0  0  0  0  0  0  0  0  0  0  0  0
   -2.6994    0.8250    0.0000 C   0  0  0  0  0  0  0  0  0  0  0  0
   -2.2145    0.1576    0.0000 C   0  0  0  0  0  0  0  0  0  0  0  0
   -0.7154    1.6500    0.0000 C   0  0  0  0  0  0  0  0  0  0  0  0
   -0.0009    1.2375    0.0000 C   0  0  0  0  0  0  0  0  0  0  0  0
    0.7136   -0.8250    0.0000 C   0  0  0  0  0  0  0  0  0  0  0  0
    1.4280   -1.2375    0.0000 C   0  0  0  0  0  0  0  0  0  0  0  0
    1.4280   -2.0625    0.0000 C   0  0  0  0  0  0  0  0  0  0  0  0
    0.7136   -2.4750    0.0000 C   0  0  0  0  0  0  0  0  0  0  0  0
   -0.0009   -2.0625    0.0000 C   0  0  0  0  0  0  0  0  0  0  0  0
   -0.0009   -1.2375    0.0000 C   0  0  0  0  0  0  0  0  0  0  0  0
   -0.7154   -0.8250    0.0000 Cl  0  0  0  0  0  0  0  0  0  0  0  0
    1.4280    0.4125    0.0000 C   0  0  0  0  0  0  0  0  0  0  0  0
    1.4280    1.2375    0.0000 O   0  0  0  0  0  0  0  0  0  0  0  0
    2.1425    1.6500    0.0000 C   0  0  0  0  0  0  0  0  0  0  0  0
    2.1425    0.0000    0.0000 O   0  0  0  0  0  0  0  0  0  0  0  0
    4.8532   -0.8250    0.0000 O   0  0  0  0  0  0  0  0  0  0  0  0
    4.8532    0.0000    0.0000 S   0  0  0  0  0  0  0  0  0  0  0  0
    4.8532    0.8250    0.0000 O   0  0  0  0  0  0  0  0  0  0  0  0
    5.6782   -0.0000    0.0000 O   0  0  0  0  0  0  0  0  0  0  0  0
    4.0282    0.0000    0.0000 O   0  0  0  0  0  0  0  0  0  0  0  0
  1  2  1  6  0  0  0
  2  3  1  0  0  0  0
  3  4  1  0  0  0  0
  4  5  2  0  0  0  0
  5  6  1  0  0  0  0
  6  7  1  0  0  0  0
  7  8  2  0  0  0  0
  4  8  1  0  0  0  0
  5  9  1  0  0  0  0
  9 10  1  0  0  0  0
  2 10  1  0  0  0  0
  1 11  1  0  0  0  0
 11 12  2  0  0  0  0
 12 13  1  0  0  0  0
 13 14  2  0  0  0  0
 14 15  1  0  0  0  0
 15 16  2  0  0  0  0
 11 16  1  0  0  0  0
 16 17  1  0  0  0  0
  1 18  1  0  0  0  0
 18 19  1  0  0  0  0
 19 20  1  0  0  0  0
 18 21  2  0  0  0  0
 22 23  2  0  0  0  0
 23 24  2  0  0  0  0
 23 25  1  0  0  0  0
 23 26  1  0  0  0  0
M  END
>  <Name>
Clopidogrel sulfate

>  <CAS>
120202-66-6

>  <Formula>
C16H16ClNO2S.H2SO4

>  <MolWt>
419.03 

>  <Bioactivity>
Selective, high affinity P2Y12 receptor antagonist. Inhibits ADP-induced platelet aggregation and displays antithrombotic activity. Active enantiomer of (±)-clopidogrel hydrochloride.

>  <Pathways>
Neuroscience

>  <Target>
P2 Receptor antagonist

>  <Receptor>
P2Y Receptor

>  <Reference>
1. Herbert JM, et al. Thromb Haemost, 1998, 80(3), 512-518.

$$$$
T0189L
  Mrv1561503291623562D          

 33 33  0  0  1  0            999 V2000
   -5.6136    5.3876    0.0000 C   0  0  0  0  0  0  0  0  0  0  0  0
   -5.2011    6.1021    0.0000 N   0  0  0  0  0  0  0  0  0  0  0  0
   -4.3761    6.1021    0.0000 C   0  0  0  0  0  0  0  0  0  0  0  0
   -3.9636    5.3876    0.0000 O   0  0  0  0  0  0  0  0  0  0  0  0
   -3.9636    6.8166    0.0000 C   0  0  0  0  0  0  0  0  0  0  0  0
   -4.3761    7.5310    0.0000 C   0  0  0  0  0  0  0  0  0  0  0  0
   -3.9636    8.2455    0.0000 C   0  0  0  0  0  0  0  0  0  0  0  0
   -3.1386    8.2455    0.0000 C   0  0  0  0  0  0  0  0  0  0  0  0
   -2.7261    8.9600    0.0000 C   0  0  0  0  0  0  0  0  0  0  0  0
   -1.9011    8.9600    0.0000 C   0  0  0  0  0  0  0  0  0  0  0  0
   -1.4886    9.6744    0.0000 C   0  0  0  0  0  0  0  0  0  0  0  0
   -0.6681    9.7607    0.0000 C   0  0  0  0  0  0  0  0  0  0  0  0
   -0.4966   10.5676    0.0000 N   0  0  0  0  0  0  0  0  0  0  0  0
   -1.2111   10.9801    0.0000 C   0  0  0  0  0  0  0  0  0  0  0  0
   -1.8242   10.4281    0.0000 C   0  0  0  0  0  0  0  0  0  0  0  0
   -2.6088   10.6831    0.0000 C   0  0  0  0  0  0  0  0  0  0  0  0
   -3.2219   10.1310    0.0000 O   0  0  0  0  0  0  0  0  0  0  0  0
   -2.7803   11.4900    0.0000 N   0  0  0  0  0  0  0  0  0  0  0  0
   -2.1672   12.0421    0.0000 C   0  0  0  0  0  0  0  0  0  0  0  0
   -1.3826   11.7871    0.0000 N   0  0  0  0  0  0  0  0  0  0  0  0
   -2.3388   12.8490    0.0000 N   0  0  0  0  0  0  0  0  0  0  0  0
   -2.7261    7.5310    0.0000 C   0  0  0  0  0  0  0  0  0  0  0  0
   -3.1386    6.8166    0.0000 C   0  0  0  0  0  0  0  0  0  0  0  0
   -6.4386    5.3876    0.0000 C   0  0  0  0  0  0  0  0  0  0  0  0
   -6.8511    4.6731    0.0000 C   0  0  0  0  0  0  0  0  0  0  0  0
   -7.6761    4.6731    0.0000 C   0  0  0  0  0  0  0  0  0  0  0  0
   -8.0886    3.9587    0.0000 O   0  5  0  0  0  0  0  0  0  0  0  0
   -8.0886    5.3876    0.0000 O   0  0  0  0  0  0  0  0  0  0  0  0
   -5.2011    4.6731    0.0000 C   0  0  0  0  0  0  0  0  0  0  0  0
   -5.6136    3.9587    0.0000 O   0  5  0  0  0  0  0  0  0  0  0  0
   -4.3761    4.6731    0.0000 O   0  0  0  0  0  0  0  0  0  0  0  0
   -8.5011    3.2442    0.0000 Na  0  3  0  0  0  0  0  0  0  0  0  0
   -6.0261    3.2442    0.0000 Na  0  3  0  0  0  0  0  0  0  0  0  0
  1  2  1  0  0  0  0
  2  3  1  0  0  0  0
  3  4  2  0  0  0  0
  3  5  1  0  0  0  0
  5  6  2  0  0  0  0
  6  7  1  0  0  0  0
  7  8  2  0  0  0  0
  8  9  1  0  0  0  0
  9 10  1  0  0  0  0
 10 11  1  0  0  0  0
 11 12  2  0  0  0  0
 12 13  1  0  0  0  0
 13 14  1  0  0  0  0
 14 15  2  0  0  0  0
 11 15  1  0  0  0  0
 15 16  1  0  0  0  0
 16 17  2  0  0  0  0
 16 18  1  0  0  0  0
 18 19  2  0  0  0  0
 19 20  1  0  0  0  0
 14 20  1  0  0  0  0
 19 21  1  0  0  0  0
  8 22  1  0  0  0  0
 22 23  2  0  0  0  0
  5 23  1  0  0  0  0
  1 24  1  0  0  0  0
 24 25  1  0  0  0  0
 25 26  1  0  0  0  0
 26 27  1  0  0  0  0
 26 28  2  0  0  0  0
  1 29  1  0  0  0  0
 29 30  1  0  0  0  0
 29 31  2  0  0  0  0
M  CHG  4  27  -1  30  -1  32   1  33   1
M  END
>  <Name>
Pemetrexed disodium

>  <CAS>
150399-23-8

>  <Formula>
C20H19N5Na2O6

>  <MolWt>
471.37 

>  <Bioactivity>
Pemetrexed (brand name Alimta) is a chemotherapy drug manufactured and marketed by Eli Lilly and Company. Its indications are the treatment of pleural mesothelioma as well as non-small cell lung cancer. 

>  <Pathways>
Metabolism;Enzyme

>  <Target>
DHFR inhibitor

>  <Receptor>
TS, DHFR,GARFT and AICARFT;DHFR;TS

>  <Reference>
1. Teicher BA, et al. Clin Cancer Res. 2000 Mar;6(3):1016-23.

$$$$
84057-95-4
  Mrv1561503291623562D          

 20 21  0  0  1  0            999 V2000
    1.4289   -2.4750    0.0000 C   0  0  1  0  0  0  0  0  0  0  0  0
    2.1434   -2.8875    0.0000 N   0  0  0  0  0  0  0  0  0  0  0  0
    2.1434   -3.7125    0.0000 C   0  0  0  0  0  0  0  0  0  0  0  0
    1.4289   -4.1250    0.0000 C   0  0  0  0  0  0  0  0  0  0  0  0
    0.7145   -3.7125    0.0000 C   0  0  0  0  0  0  0  0  0  0  0  0
    0.7145   -2.8875    0.0000 C   0  0  0  0  0  0  0  0  0  0  0  0
    2.8579   -2.4750    0.0000 C   0  0  0  0  0  0  0  0  0  0  0  0
    3.5724   -2.8875    0.0000 C   0  0  0  0  0  0  0  0  0  0  0  0
    4.2868   -2.4750    0.0000 C   0  0  0  0  0  0  0  0  0  0  0  0
    1.4289   -1.6500    0.0000 C   0  0  0  0  0  0  0  0  0  0  0  0
    0.7145   -1.2375    0.0000 N   0  0  0  0  0  0  0  0  0  0  0  0
    0.7145   -0.4125    0.0000 C   0  0  0  0  0  0  0  0  0  0  0  0
   -0.0000   -0.0000    0.0000 C   0  0  0  0  0  0  0  0  0  0  0  0
   -0.0000    0.8250    0.0000 C   0  0  0  0  0  0  0  0  0  0  0  0
    0.7145    1.2375    0.0000 C   0  0  0  0  0  0  0  0  0  0  0  0
    1.4289    0.8250    0.0000 C   0  0  0  0  0  0  0  0  0  0  0  0
    1.4289   -0.0000    0.0000 C   0  0  0  0  0  0  0  0  0  0  0  0
    2.1434   -0.4125    0.0000 C   0  0  0  0  0  0  0  0  0  0  0  0
   -0.7145   -0.4125    0.0000 C   0  0  0  0  0  0  0  0  0  0  0  0
    2.1434   -1.2375    0.0000 O   0  0  0  0  0  0  0  0  0  0  0  0
  1  2  1  0  0  0  0
  2  3  1  0  0  0  0
  3  4  1  0  0  0  0
  4  5  1  0  0  0  0
  5  6  1  0  0  0  0
  1  6  1  0  0  0  0
  2  7  1  0  0  0  0
  7  8  1  0  0  0  0
  8  9  1  0  0  0  0
  1 10  1  1  0  0  0
 10 11  1  0  0  0  0
 11 12  1  0  0  0  0
 12 13  2  0  0  0  0
 13 14  1  0  0  0  0
 14 15  2  0  0  0  0
 15 16  1  0  0  0  0
 16 17  2  0  0  0  0
 12 17  1  0  0  0  0
 17 18  1  0  0  0  0
 13 19  1  0  0  0  0
 10 20  2  0  0  0  0
M  END
>  <Name>
Ropivacaine

>  <CAS>
84057-95-4

>  <Formula>
C17H26N2O

>  <MolWt>
274.40 

>  <Bioactivity>
Ropivacaine is a local anaesthetic drug belonging to the amino amide group. The name ropivacaine refers to both the racemate and the marketed S-enantiomer. Ropivacaine hydrochloride is commonly marketed by AstraZeneca under the trade name Naropin.  

>  <Pathways>
Membrane Transporter/Ion Channel

>  <Target>
Sodium Channel inhibitor

>  <Receptor>
Sodium Channel

>  <Reference>
1. Liu BG, et al. Anesth Analg. 2000 May;90(5):1034-8.

$$$$
56296-78-7
  Mrv1561503291623562D          

 24 23  0  0  0  0            999 V2000
    0.4125    0.0000    0.0000 H   0  3  0  0  0  0  0  0  0  0  0  0
    2.2982    1.5937    0.0000 C   0  0  0  0  0  0  0  0  0  0  0  0
    3.0127    2.0062    0.0000 C   0  0  0  0  0  0  0  0  0  0  0  0
    3.0127    2.8312    0.0000 C   0  0  0  0  0  0  0  0  0  0  0  0
    3.0127    3.6562    0.0000 F   0  0  0  0  0  0  0  0  0  0  0  0
    2.1877    2.8312    0.0000 F   0  0  0  0  0  0  0  0  0  0  0  0
    3.8377    2.8312    0.0000 F   0  0  0  0  0  0  0  0  0  0  0  0
    3.7272    1.5938    0.0000 C   0  0  0  0  0  0  0  0  0  0  0  0
    3.7272    0.7688    0.0000 C   0  0  0  0  0  0  0  0  0  0  0  0
    3.0127    0.3563    0.0000 C   0  0  0  0  0  0  0  0  0  0  0  0
    2.2982    0.7688    0.0000 C   0  0  0  0  0  0  0  0  0  0  0  0
    3.0127   -0.4688    0.0000 O   0  0  0  0  0  0  0  0  0  0  0  0
    3.7272   -0.8812    0.0000 C   0  0  0  0  0  0  0  0  0  0  0  0
    3.7272   -1.7063    0.0000 C   0  0  0  0  0  0  0  0  0  0  0  0
    4.4416   -2.1187    0.0000 C   0  0  0  0  0  0  0  0  0  0  0  0
    4.4416   -2.9437    0.0000 C   0  0  0  0  0  0  0  0  0  0  0  0
    3.7272   -3.3562    0.0000 C   0  0  0  0  0  0  0  0  0  0  0  0
    3.0127   -2.9437    0.0000 C   0  0  0  0  0  0  0  0  0  0  0  0
    3.0127   -2.1187    0.0000 C   0  0  0  0  0  0  0  0  0  0  0  0
    4.4416   -0.4687    0.0000 C   0  0  0  0  0  0  0  0  0  0  0  0
    5.1561   -0.8813    0.0000 C   0  0  0  0  0  0  0  0  0  0  0  0
    5.8706   -0.4687    0.0000 N   0  0  0  0  0  0  0  0  0  0  0  0
    6.5850   -0.8813    0.0000 C   0  0  0  0  0  0  0  0  0  0  0  0
   -0.4125    0.0000    0.0000 Cl  0  5  0  0  0  0  0  0  0  0  0  0
  2  3  2  0  0  0  0
  3  4  1  0  0  0  0
  4  5  1  0  0  0  0
  4  6  1  0  0  0  0
  4  7  1  0  0  0  0
  3  8  1  0  0  0  0
  8  9  2  0  0  0  0
  9 10  1  0  0  0  0
 10 11  2  0  0  0  0
  2 11  1  0  0  0  0
 10 12  1  0  0  0  0
 12 13  1  0  0  0  0
 13 14  1  0  0  0  0
 14 15  2  0  0  0  0
 15 16  1  0  0  0  0
 16 17  2  0  0  0  0
 17 18  1  0  0  0  0
 18 19  2  0  0  0  0
 14 19  1  0  0  0  0
 13 20  1  0  0  0  0
 20 21  1  0  0  0  0
 21 22  1  0  0  0  0
 22 23  1  0  0  0  0
M  CHG  2   1   1  24  -1
M  END
>  <Name>
Fluoxetine hydrochloride

>  <CAS>
56296-78-7

>  <Formula>
C17H18F3NO.HCl

>  <MolWt>
345.79 

>  <Bioactivity>
The first highly specific serotonin uptake inhibitor. It is used as an antidepressant and often has a more acceptable side-effects profile than traditional antidepressants.  

>  <Pathways>
Neuroscience

>  <Target>
5-HT Receptor antagonist

>  <Receptor>
5-HT receptor;Sodium-dependent serotonin transporter

>  <Reference>
1. Richman A, et al. Epilepsy Res. 2007 Apr;74(1):19-27. 

$$$$
T0853L
  Mrv1561503291623562D          

 24 25  0  0  1  0            999 V2000
   -1.4546   -0.0059    0.0000 C   0  0  2  0  0  0  0  0  0  0  0  0
   -2.1220   -0.4908    0.0000 O   0  0  0  0  0  0  0  0  0  0  0  0
   -1.4546    0.8191    0.0000 C   0  0  2  0  0  0  0  0  0  0  0  0
   -2.1220    1.3040    0.0000 O   0  0  0  0  0  0  0  0  0  0  0  0
   -0.6700    1.0740    0.0000 C   0  0  2  0  0  0  0  0  0  0  0  0
   -0.1850    0.4066    0.0000 O   0  0  0  0  0  0  0  0  0  0  0  0
   -0.6700   -0.2608    0.0000 C   0  0  1  0  0  0  0  0  0  0  0  0
   -0.4150   -1.0455    0.0000 N   0  0  0  0  0  0  0  0  0  0  0  0
    0.3696   -1.3004    0.0000 C   0  0  0  0  0  0  0  0  0  0  0  0
    1.0841   -0.8879    0.0000 N   0  0  0  0  0  0  0  0  0  0  0  0
    1.7986   -1.3004    0.0000 C   0  0  0  0  0  0  0  0  0  0  0  0
    1.7986   -2.1254    0.0000 N   0  0  0  0  0  0  0  0  0  0  0  0
    1.0841   -2.5379    0.0000 C   0  0  0  0  0  0  0  0  0  0  0  0
    0.3696   -2.1254    0.0000 C   0  0  0  0  0  0  0  0  0  0  0  0
   -0.4150   -2.3803    0.0000 N   0  0  0  0  0  0  0  0  0  0  0  0
   -0.8999   -1.7129    0.0000 C   0  0  0  0  0  0  0  0  0  0  0  0
    1.0841   -3.3629    0.0000 N   0  0  0  0  0  0  0  0  0  0  0  0
   -0.4150    1.8587    0.0000 C   0  0  0  0  0  0  0  0  0  0  0  0
    0.3920    2.0302    0.0000 O   0  0  0  0  0  0  0  0  0  0  0  0
    0.6469    2.8148    0.0000 P   0  0  0  0  0  0  0  0  0  0  0  0
    0.9018    3.5994    0.0000 O   0  0  0  0  0  0  0  0  0  0  0  0
    1.4315    2.5599    0.0000 O   0  0  0  0  0  0  0  0  0  0  0  0
   -0.1377    3.0698    0.0000 O   0  0  0  0  0  0  0  0  0  0  0  0
    4.1557    0.0000    0.0000 O   0  0  0  0  0  0  0  0  0  0  0  0
  1  2  1  6  0  0  0
  1  3  1  0  0  0  0
  3  4  1  6  0  0  0
  3  5  1  0  0  0  0
  5  6  1  0  0  0  0
  6  7  1  0  0  0  0
  1  7  1  0  0  0  0
  7  8  1  1  0  0  0
  8  9  1  0  0  0  0
  9 10  2  0  0  0  0
 10 11  1  0  0  0  0
 11 12  2  0  0  0  0
 12 13  1  0  0  0  0
 13 14  2  0  0  0  0
  9 14  1  0  0  0  0
 14 15  1  0  0  0  0
 15 16  2  0  0  0  0
  8 16  1  0  0  0  0
 13 17  1  0  0  0  0
  5 18  1  1  0  0  0
 18 19  1  0  0  0  0
 19 20  1  0  0  0  0
 20 21  1  0  0  0  0
 20 22  1  0  0  0  0
 20 23  2  0  0  0  0
M  END
>  <Name>
Adenosine 5'-monophosphate monohydrate

>  <CAS>
18422-05-4

>  <Formula>
C10H14N5O7P.H2O

>  <MolWt>
365.24 

>  <Bioactivity>
Adenosine monophosphate (AMP), also known as 5'-adenylic acid, is a nucleotide that is used as a monomer in RNA. It is an ester of phosphoric acid and the nucleoside adenosine. AMP consists of a phosphate group, the sugar ribose, and the nucleobase adenine. As a substituent it takes the form of the prefix adenylyl-. 

>  <Pathways>
MAPK Signaling

>  <Target>
MAPK activator

>  <Receptor>
5'-AMP-activated protein kinase

>  <Reference>
1. Miao Z, et al. Rheumatol Int. 2013 Aug; 33(8):2085-92.

$$$$
5633-20-5
  Mrv1561503291623562D          

 26 27  0  0  0  0            999 V2000
    1.6500   -0.8250    0.0000 C   0  0  0  0  0  0  0  0  0  0  0  0
    2.3645   -0.4125    0.0000 C   0  0  0  0  0  0  0  0  0  0  0  0
    2.3645    0.4125    0.0000 C   0  0  0  0  0  0  0  0  0  0  0  0
    3.1895    0.4125    0.0000 C   0  0  0  0  0  0  0  0  0  0  0  0
    3.6020    1.1270    0.0000 C   0  0  0  0  0  0  0  0  0  0  0  0
    4.4270    1.1270    0.0000 C   0  0  0  0  0  0  0  0  0  0  0  0
    4.8395    0.4125    0.0000 C   0  0  0  0  0  0  0  0  0  0  0  0
    4.4270   -0.3020    0.0000 C   0  0  0  0  0  0  0  0  0  0  0  0
    3.6020   -0.3020    0.0000 C   0  0  0  0  0  0  0  0  0  0  0  0
    1.5395    0.4125    0.0000 C   0  0  0  0  0  0  0  0  0  0  0  0
    1.1270    1.1270    0.0000 O   0  0  0  0  0  0  0  0  0  0  0  0
    0.3020    1.1270    0.0000 C   0  0  0  0  0  0  0  0  0  0  0  0
   -0.1105    1.8414    0.0000 C   0  0  0  0  0  0  0  0  0  0  0  0
   -0.5230    2.5559    0.0000 C   0  0  0  0  0  0  0  0  0  0  0  0
   -0.9355    3.2704    0.0000 C   0  0  0  0  0  0  0  0  0  0  0  0
   -1.7605    3.2704    0.0000 N   0  0  0  0  0  0  0  0  0  0  0  0
   -2.1730    3.9849    0.0000 C   0  0  0  0  0  0  0  0  0  0  0  0
   -2.9980    3.9849    0.0000 C   0  0  0  0  0  0  0  0  0  0  0  0
   -2.1730    2.5559    0.0000 C   0  0  0  0  0  0  0  0  0  0  0  0
   -2.9980    2.5559    0.0000 C   0  0  0  0  0  0  0  0  0  0  0  0
    1.1270   -0.3020    0.0000 O   0  0  0  0  0  0  0  0  0  0  0  0
    2.3645    1.2375    0.0000 O   0  0  0  0  0  0  0  0  0  0  0  0
    3.0789   -0.8250    0.0000 C   0  0  0  0  0  0  0  0  0  0  0  0
    3.0789   -1.6500    0.0000 C   0  0  0  0  0  0  0  0  0  0  0  0
    2.3645   -2.0625    0.0000 C   0  0  0  0  0  0  0  0  0  0  0  0
    1.6500   -1.6500    0.0000 C   0  0  0  0  0  0  0  0  0  0  0  0
  1  2  2  0  0  0  0
  2  3  1  0  0  0  0
  3  4  1  0  0  0  0
  4  5  1  0  0  0  0
  5  6  1  0  0  0  0
  6  7  1  0  0  0  0
  7  8  1  0  0  0  0
  8  9  1  0  0  0  0
  4  9  1  0  0  0  0
  3 10  1  0  0  0  0
 10 11  1  0  0  0  0
 11 12  1  0  0  0  0
 12 13  1  0  0  0  0
 13 14  3  0  0  0  0
 14 15  1  0  0  0  0
 15 16  1  0  0  0  0
 16 17  1  0  0  0  0
 17 18  1  0  0  0  0
 16 19  1  0  0  0  0
 19 20  1  0  0  0  0
 10 21  2  0  0  0  0
  3 22  1  0  0  0  0
  2 23  1  0  0  0  0
 23 24  2  0  0  0  0
 24 25  1  0  0  0  0
 25 26  2  0  0  0  0
  1 26  1  0  0  0  0
M  END
>  <Name>
Oxybutynin

>  <CAS>
5633-20-5

>  <Formula>
C22H31NO3

>  <MolWt>
357.49 

>  <Bioactivity>
Oxybutynin is an anticholinergic medication used to relieve urinary and bladder difficulties, including frequent urination and inability to control urination, by decreasing muscle spasms of the bladder. It competitively antagonizes the M1, M2, and M3 subtypes of the muscarinic acetylcholine receptor. 

>  <Pathways>
Neuroscience

>  <Target>
AChR antagonist

>  <Receptor>
Muscarinic AChR

>  <Reference>
1. Ito Y, et al. Eur J Pharmacol. 2009 Aug 1;615(1-3):201-6. 

$$$$
27025-41-8
  Mrv1561503291623562D          

 40 39  0  0  0  0            999 V2000
   20.6171    6.9533    0.0000 N   0  0  0  0  0  0  0  0  0  0  0  0
   20.6171    6.1283    0.0000 C   0  0  0  0  0  0  0  0  0  0  0  0
   19.9026    5.7158    0.0000 C   0  0  0  0  0  0  0  0  0  0  0  0
   19.1881    6.1283    0.0000 C   0  0  0  0  0  0  0  0  0  0  0  0
   18.4737    5.7158    0.0000 C   0  0  0  0  0  0  0  0  0  0  0  0
   18.4737    4.8908    0.0000 O   0  0  0  0  0  0  0  0  0  0  0  0
   17.7592    6.1283    0.0000 N   0  0  0  0  0  0  0  0  0  0  0  0
   17.0447    5.7158    0.0000 C   0  0  0  0  0  0  0  0  0  0  0  0
   16.3302    6.1283    0.0000 C   0  0  0  0  0  0  0  0  0  0  0  0
   15.6158    5.7158    0.0000 S   0  0  0  0  0  0  0  0  0  0  0  0
   14.9013    6.1283    0.0000 S   0  0  0  0  0  0  0  0  0  0  0  0
   14.1868    5.7158    0.0000 C   0  0  0  0  0  0  0  0  0  0  0  0
   13.4724    6.1283    0.0000 C   0  0  0  0  0  0  0  0  0  0  0  0
   12.7579    5.7158    0.0000 N   0  0  0  0  0  0  0  0  0  0  0  0
   12.0434    6.1283    0.0000 C   0  0  0  0  0  0  0  0  0  0  0  0
   12.0434    6.9533    0.0000 O   0  0  0  0  0  0  0  0  0  0  0  0
   11.3289    5.7158    0.0000 C   0  0  0  0  0  0  0  0  0  0  0  0
   10.6145    6.1283    0.0000 C   0  0  0  0  0  0  0  0  0  0  0  0
    9.9000    5.7158    0.0000 C   0  0  0  0  0  0  0  0  0  0  0  0
    9.9000    4.8908    0.0000 N   0  0  0  0  0  0  0  0  0  0  0  0
    9.1855    6.1283    0.0000 C   0  0  0  0  0  0  0  0  0  0  0  0
    8.4711    5.7158    0.0000 O   0  0  0  0  0  0  0  0  0  0  0  0
    9.1855    6.9533    0.0000 O   0  0  0  0  0  0  0  0  0  0  0  0
   13.4724    6.9533    0.0000 C   0  0  0  0  0  0  0  0  0  0  0  0
   14.1868    7.3658    0.0000 O   0  0  0  0  0  0  0  0  0  0  0  0
   12.7579    7.3658    0.0000 N   0  0  0  0  0  0  0  0  0  0  0  0
   12.7579    8.1908    0.0000 C   0  0  0  0  0  0  0  0  0  0  0  0
   12.0434    8.6033    0.0000 C   0  0  0  0  0  0  0  0  0  0  0  0
   11.3289    8.1908    0.0000 O   0  0  0  0  0  0  0  0  0  0  0  0
   12.0434    9.4283    0.0000 O   0  0  0  0  0  0  0  0  0  0  0  0
   17.0447    4.8908    0.0000 C   0  0  0  0  0  0  0  0  0  0  0  0
   16.3302    4.4783    0.0000 O   0  0  0  0  0  0  0  0  0  0  0  0
   17.7592    4.4783    0.0000 N   0  0  0  0  0  0  0  0  0  0  0  0
   17.7592    3.6533    0.0000 C   0  0  0  0  0  0  0  0  0  0  0  0
   18.4737    3.2408    0.0000 C   0  0  0  0  0  0  0  0  0  0  0  0
   19.1881    3.6533    0.0000 O   0  0  0  0  0  0  0  0  0  0  0  0
   18.4737    2.4158    0.0000 O   0  0  0  0  0  0  0  0  0  0  0  0
   21.3315    5.7158    0.0000 C   0  0  0  0  0  0  0  0  0  0  0  0
   22.0460    6.1283    0.0000 O   0  0  0  0  0  0  0  0  0  0  0  0
   21.3315    4.8908    0.0000 O   0  0  0  0  0  0  0  0  0  0  0  0
  1  2  1  0  0  0  0
  2  3  1  0  0  0  0
  3  4  1  0  0  0  0
  4  5  1  0  0  0  0
  5  6  2  0  0  0  0
  5  7  1  0  0  0  0
  7  8  1  0  0  0  0
  8  9  1  0  0  0  0
  9 10  1  0  0  0  0
 10 11  1  0  0  0  0
 11 12  1  0  0  0  0
 12 13  1  0  0  0  0
 13 14  1  0  0  0  0
 14 15  1  0  0  0  0
 15 16  2  0  0  0  0
 15 17  1  0  0  0  0
 17 18  1  0  0  0  0
 18 19  1  0  0  0  0
 19 20  1  0  0  0  0
 19 21  1  0  0  0  0
 21 22  1  0  0  0  0
 21 23  2  0  0  0  0
 13 24  1  0  0  0  0
 24 25  2  0  0  0  0
 24 26  1  0  0  0  0
 26 27  1  0  0  0  0
 27 28  1  0  0  0  0
 28 29  1  0  0  0  0
 28 30  2  0  0  0  0
  8 31  1  0  0  0  0
 31 32  2  0  0  0  0
 31 33  1  0  0  0  0
 33 34  1  0  0  0  0
 34 35  1  0  0  0  0
 35 36  1  0  0  0  0
 35 37  2  0  0  0  0
  2 38  1  0  0  0  0
 38 39  1  0  0  0  0
 38 40  2  0  0  0  0
M  END
>  <Name>
L(-)-Glutathione

>  <CAS>
27025-41-8

>  <Formula>
C20H32N6O12S2

>  <MolWt>
612.63 

>  <Bioactivity>
A GLUTATHIONE dimer formed by a disulfide bond between the cysteine sulfhydryl side chains during the course of being oxidized.


>  <Pathways>
Metabolism

>  <Target>
Glutathione reductase

>  <Receptor>
Glutathione reductase

>  <Reference>
1. Hall MN, et al. Environ Health Perspect. 2013 Sep;121(9):1068-74. 

$$$$
68-89-3
  Mrv1561503291623562D          

 22 22  0  0  0  0            999 V2000
    1.4289    2.4750    0.0000 Na  0  3  0  0  0  0  0  0  0  0  0  0
   -0.0000    0.0000    0.0000 C   0  0  0  0  0  0  0  0  0  0  0  0
    0.7145   -0.4125    0.0000 N   0  0  0  0  0  0  0  0  0  0  0  0
    1.4289    0.0000    0.0000 C   0  0  0  0  0  0  0  0  0  0  0  0
    1.4289    0.8250    0.0000 S   0  0  0  0  0  0  0  0  0  0  0  0
    1.4289    1.6500    0.0000 O   0  5  0  0  0  0  0  0  0  0  0  0
    0.6039    0.8250    0.0000 O   0  0  0  0  0  0  0  0  0  0  0  0
    2.2539    0.8250    0.0000 O   0  0  0  0  0  0  0  0  0  0  0  0
    0.7145   -1.2375    0.0000 C   0  0  0  0  0  0  0  0  0  0  0  0
    1.3819   -1.7224    0.0000 C   0  0  0  0  0  0  0  0  0  0  0  0
    2.1665   -1.4675    0.0000 C   0  0  0  0  0  0  0  0  0  0  0  0
    1.1270   -2.5070    0.0000 N   0  0  0  0  0  0  0  0  0  0  0  0
    1.6119   -3.1745    0.0000 C   0  0  0  0  0  0  0  0  0  0  0  0
    0.3020   -2.5070    0.0000 N   0  0  0  0  0  0  0  0  0  0  0  0
    0.0470   -1.7224    0.0000 C   0  0  0  0  0  0  0  0  0  0  0  0
   -0.7376   -1.4675    0.0000 O   0  0  0  0  0  0  0  0  0  0  0  0
   -0.1830   -3.1745    0.0000 C   0  0  0  0  0  0  0  0  0  0  0  0
    0.1526   -3.9282    0.0000 C   0  0  0  0  0  0  0  0  0  0  0  0
   -0.3323   -4.5956    0.0000 C   0  0  0  0  0  0  0  0  0  0  0  0
   -1.1528   -4.5094    0.0000 C   0  0  0  0  0  0  0  0  0  0  0  0
   -1.4884   -3.7557    0.0000 C   0  0  0  0  0  0  0  0  0  0  0  0
   -1.0034   -3.0882    0.0000 C   0  0  0  0  0  0  0  0  0  0  0  0
  2  3  1  0  0  0  0
  3  4  1  0  0  0  0
  4  5  1  0  0  0  0
  5  6  1  0  0  0  0
  5  7  2  0  0  0  0
  5  8  2  0  0  0  0
  3  9  1  0  0  0  0
  9 10  2  0  0  0  0
 10 11  1  0  0  0  0
 10 12  1  0  0  0  0
 12 13  1  0  0  0  0
 12 14  1  0  0  0  0
 14 15  1  0  0  0  0
  9 15  1  0  0  0  0
 15 16  2  0  0  0  0
 14 17  1  0  0  0  0
 17 18  4  0  0  0  0
 18 19  4  0  0  0  0
 19 20  4  0  0  0  0
 20 21  4  0  0  0  0
 21 22  4  0  0  0  0
 17 22  4  0  0  0  0
M  CHG  2   1   1   6  -1
M  END
>  <Name>
Sodium [(2,3-dihydro-1,5-dimethyl-3-oxo-2-phenyl-1H-pyrazol-4-yl)methylamino]methanesulfonate

>  <CAS>
68-89-3

>  <Formula>
C13H16N3NaO4S

>  <MolWt>
333.34 

>  <Bioactivity>
A drug that has analgesic, anti-inflammatory, and antipyretic properties. It is the sodium sulfonate of AMINOPYRINE. Because of the risk of serious adverse effects its use is justified only in serious situations where no alternative is available or suitable. 

>  <Pathways>
Neuroscience

>  <Target>
COX

>  <Receptor>
Prostaglandin G/H synthase 1

>  <Reference>
1. Jage J, et al. Anaesthesist. 2008 Apr;57(4):382-90.

$$$$
320-67-2
  Mrv1561503291623562D          

 17 18  0  0  1  0            999 V2000
    0.7145   -1.2375    0.0000 C   0  0  2  0  0  0  0  0  0  0  0  0
    0.7145   -0.4125    0.0000 N   0  0  0  0  0  0  0  0  0  0  0  0
   -0.0000   -0.0000    0.0000 C   0  0  0  0  0  0  0  0  0  0  0  0
   -0.0000    0.8250    0.0000 N   0  0  0  0  0  0  0  0  0  0  0  0
    0.7145    1.2375    0.0000 C   0  0  0  0  0  0  0  0  0  0  0  0
    0.7145    2.0625    0.0000 N   0  0  0  0  0  0  0  0  0  0  0  0
    1.4289    0.8250    0.0000 N   0  0  0  0  0  0  0  0  0  0  0  0
    1.4289   -0.0000    0.0000 C   0  0  0  0  0  0  0  0  0  0  0  0
   -0.7145   -0.4125    0.0000 O   0  0  0  0  0  0  0  0  0  0  0  0
    1.3819   -1.7224    0.0000 O   0  0  0  0  0  0  0  0  0  0  0  0
    1.1270   -2.5070    0.0000 C   0  0  2  0  0  0  0  0  0  0  0  0
    1.6119   -3.1745    0.0000 C   0  0  0  0  0  0  0  0  0  0  0  0
    2.4324   -3.0882    0.0000 O   0  0  0  0  0  0  0  0  0  0  0  0
    0.3020   -2.5070    0.0000 C   0  0  2  0  0  0  0  0  0  0  0  0
    0.0470   -1.7224    0.0000 C   0  0  1  0  0  0  0  0  0  0  0  0
   -0.7376   -1.4675    0.0000 O   0  0  0  0  0  0  0  0  0  0  0  0
   -0.1830   -3.1745    0.0000 O   0  0  0  0  0  0  0  0  0  0  0  0
  1  2  1  6  0  0  0
  2  3  1  0  0  0  0
  3  4  1  0  0  0  0
  4  5  2  0  0  0  0
  5  6  1  0  0  0  0
  5  7  1  0  0  0  0
  7  8  2  0  0  0  0
  2  8  1  0  0  0  0
  3  9  2  0  0  0  0
  1 10  1  0  0  0  0
 10 11  1  0  0  0  0
 11 12  1  6  0  0  0
 12 13  1  0  0  0  0
 11 14  1  0  0  0  0
 14 15  1  0  0  0  0
  1 15  1  0  0  0  0
 15 16  1  1  0  0  0
 14 17  1  1  0  0  0
M  END
>  <Name>
Mylosar

>  <CAS>
320-67-2

>  <Formula>
C8H12N4O5

>  <MolWt>
244.20 

>  <Bioactivity>
A pyrimidine analogue that inhibits DNA methyltransferase, impairing DNA methylation. It is also an antimetabolite of cytidine, incorporated primarily into RNA. Azacytidine has been used as an antineoplastic agent. 

>  <Pathways>
Chromatin/Epigenetic

>  <Target>
DNA Methyltransferase inhibitor

>  <Receptor>
DNA Methyltransferase

>  <Reference>
1. Kiziltepe T, et al. Mol Cancer Ther. 2007 Jun;6(6):1718-27.

$$$$
33386-08-2
  Mrv1561503291623562D          

 30 31  0  0  0  0            999 V2000
    0.4125    0.0000    0.0000 H   0  3  0  0  0  0  0  0  0  0  0  0
   12.7017    1.4289    0.0000 C   0  0  0  0  0  0  0  0  0  0  0  0
   13.1142    0.7145    0.0000 C   0  0  0  0  0  0  0  0  0  0  0  0
   12.7017    0.0000    0.0000 C   0  0  0  0  0  0  0  0  0  0  0  0
   11.8767    0.0000    0.0000 N   0  0  0  0  0  0  0  0  0  0  0  0
   11.4642    0.7145    0.0000 C   0  0  0  0  0  0  0  0  0  0  0  0
   11.8767    1.4289    0.0000 N   0  0  0  0  0  0  0  0  0  0  0  0
   10.6392    0.7145    0.0000 N   0  0  0  0  0  0  0  0  0  0  0  0
   10.2267    0.0000    0.0000 C   0  0  0  0  0  0  0  0  0  0  0  0
    9.4017    0.0000    0.0000 C   0  0  0  0  0  0  0  0  0  0  0  0
    8.9892    0.7145    0.0000 N   0  0  0  0  0  0  0  0  0  0  0  0
    9.4017    1.4289    0.0000 C   0  0  0  0  0  0  0  0  0  0  0  0
   10.2267    1.4289    0.0000 C   0  0  0  0  0  0  0  0  0  0  0  0
    8.1642    0.7145    0.0000 C   0  0  0  0  0  0  0  0  0  0  0  0
    7.7517   -0.0000    0.0000 C   0  0  0  0  0  0  0  0  0  0  0  0
    6.9267   -0.0000    0.0000 C   0  0  0  0  0  0  0  0  0  0  0  0
    6.5142   -0.7145    0.0000 C   0  0  0  0  0  0  0  0  0  0  0  0
    5.6892   -0.7145    0.0000 N   0  0  0  0  0  0  0  0  0  0  0  0
    5.2767   -1.4289    0.0000 C   0  0  0  0  0  0  0  0  0  0  0  0
    5.6892   -2.1434    0.0000 O   0  0  0  0  0  0  0  0  0  0  0  0
    4.4517   -1.4289    0.0000 C   0  0  0  0  0  0  0  0  0  0  0  0
    4.0392   -0.7145    0.0000 C   0  0  0  0  0  0  0  0  0  0  0  0
    4.4517   -0.0000    0.0000 C   0  0  0  0  0  0  0  0  0  0  0  0
    5.2767   -0.0000    0.0000 C   0  0  0  0  0  0  0  0  0  0  0  0
    5.6892    0.7145    0.0000 O   0  0  0  0  0  0  0  0  0  0  0  0
    3.5543   -1.3819    0.0000 C   0  0  0  0  0  0  0  0  0  0  0  0
    2.7696   -1.1270    0.0000 C   0  0  0  0  0  0  0  0  0  0  0  0
    2.7696   -0.3020    0.0000 C   0  0  0  0  0  0  0  0  0  0  0  0
    3.5543   -0.0470    0.0000 C   0  0  0  0  0  0  0  0  0  0  0  0
   -0.4125    0.0000    0.0000 Cl  0  5  0  0  0  0  0  0  0  0  0  0
  2  3  2  0  0  0  0
  3  4  1  0  0  0  0
  4  5  2  0  0  0  0
  5  6  1  0  0  0  0
  6  7  2  0  0  0  0
  2  7  1  0  0  0  0
  6  8  1  0  0  0  0
  8  9  1  0  0  0  0
  9 10  1  0  0  0  0
 10 11  1  0  0  0  0
 11 12  1  0  0  0  0
 12 13  1  0  0  0  0
  8 13  1  0  0  0  0
 11 14  1  0  0  0  0
 14 15  1  0  0  0  0
 15 16  1  0  0  0  0
 16 17  1  0  0  0  0
 17 18  1  0  0  0  0
 18 19  1  0  0  0  0
 19 20  2  0  0  0  0
 19 21  1  0  0  0  0
 21 22  1  0  0  0  0
 22 23  1  0  0  0  0
 23 24  1  0  0  0  0
 18 24  1  0  0  0  0
 24 25  2  0  0  0  0
 22 26  1  0  0  0  0
 26 27  1  0  0  0  0
 27 28  1  0  0  0  0
 28 29  1  0  0  0  0
 22 29  1  0  0  0  0
M  CHG  2   1   1  30  -1
M  END
>  <Name>
Buspirone HCl

>  <CAS>
33386-08-2

>  <Formula>
C21H32ClN5O2

>  <MolWt>
421.96 

>  <Bioactivity>
An anxiolytic agent and serotonin receptor agonist belonging to the azaspirodecanedione class of compounds. Its structure is unrelated to those of the BENZODIAZAPINES, but it has an efficacy comparable to DIAZEPAM.


>  <Pathways>
Neuroscience

>  <Target>
5-HT Receptor antagonist;Dopamine Receptor antagonist

>  <Receptor>
5-HT receptor;Dopamine receptor 

>  <Reference>
1. VanderMaelen CP, et al. Eur J Pharmacol, 1986, 129(1-2), 123-130.

$$$$
T0832
  Mrv1561503291623562D          

102110  0  0  0  0            999 V2000
   -5.3122   -4.8686    0.0000 C   0  0  0  0  0  0  0  0  0  0  0  0
   -4.4906   -4.9431    0.0000 C   0  0  0  0  0  0  0  0  0  0  0  0
   -4.1443   -5.6920    0.0000 C   0  0  0  0  0  0  0  0  0  0  0  0
   -3.3227   -5.7665    0.0000 C   0  0  0  0  0  0  0  0  0  0  0  0
   -2.8473   -5.0922    0.0000 C   0  0  0  0  0  0  0  0  0  0  0  0
   -3.1936   -4.3434    0.0000 C   0  0  0  0  0  0  0  0  0  0  0  0
   -4.0152   -4.2689    0.0000 O   0  0  0  0  0  0  0  0  0  0  0  0
   -2.7182   -3.6691    0.0000 O   0  0  0  0  0  0  0  0  0  0  0  0
   -3.0645   -2.9203    0.0000 C   0  0  0  0  0  0  0  0  0  0  0  0
   -3.8861   -2.8458    0.0000 C   0  0  0  0  0  0  0  0  0  0  0  0
   -4.2324   -2.0969    0.0000 C   0  0  0  0  0  0  0  0  0  0  0  0
   -3.7570   -1.4227    0.0000 C   0  0  0  0  0  0  0  0  0  0  0  0
   -2.9354   -1.4972    0.0000 O   0  0  0  0  0  0  0  0  0  0  0  0
   -2.5891   -2.2460    0.0000 C   0  0  0  0  0  0  0  0  0  0  0  0
   -1.7675   -2.3206    0.0000 O   0  0  0  0  0  0  0  0  0  0  0  0
   -1.2921   -1.6463    0.0000 C   0  0  0  0  0  0  0  0  0  0  0  0
   -0.4500   -1.7484    0.0000 C   0  0  0  0  0  0  0  0  0  0  0  0
   -0.0034   -1.0358    0.0000 C   0  0  0  0  0  0  0  0  0  0  0  0
   -0.3377   -0.2658    0.0000 C   0  0  0  0  0  0  0  0  0  0  0  0
   -1.1696   -0.2168    0.0000 C   0  0  0  0  0  0  0  0  0  0  0  0
   -1.6678   -0.8942    0.0000 C   0  0  0  0  0  0  0  0  0  0  0  0
   -2.4861   -0.6465    0.0000 O   0  0  0  0  0  0  0  0  0  0  0  0
   -3.0793   -0.0240    0.0000 C   0  0  0  0  0  0  0  0  0  0  0  0
   -2.4784    0.5580    0.0000 C   0  0  0  0  0  0  0  0  0  0  0  0
   -2.6378    1.3671    0.0000 C   0  0  0  0  0  0  0  0  0  0  0  0
   -3.4207    1.6505    0.0000 C   0  0  0  0  0  0  0  0  0  0  0  0
   -4.0416    1.0835    0.0000 C   0  0  0  0  0  0  0  0  0  0  0  0
   -3.8733    0.2626    0.0000 C   0  0  0  0  0  0  0  0  0  0  0  0
   -3.1822    2.4588    0.0000 C   0  0  0  0  0  0  0  0  0  0  0  0
   -2.5864    3.0582    0.0000 C   0  0  0  0  0  0  0  0  0  0  0  0
   -1.7934    3.3691    0.0000 C   0  0  0  0  0  0  0  0  0  0  0  0
   -1.9026    4.1869    0.0000 O   0  0  0  0  0  0  0  0  0  0  0  0
   -0.9555    3.2782    0.0000 N   0  0  0  0  0  0  0  0  0  0  0  0
   -0.2195    2.8627    0.0000 C   0  0  0  0  0  0  0  0  0  0  0  0
    0.1369    2.1003    0.0000 C   0  0  0  0  0  0  0  0  0  0  0  0
    0.9515    2.2305    0.0000 O   0  0  0  0  0  0  0  0  0  0  0  0
    0.0355    1.2626    0.0000 N   0  0  0  0  0  0  0  0  0  0  0  0
    0.1750    0.4193    0.0000 C   0  0  0  0  0  0  0  0  0  0  0  0
    1.0080    0.5297    0.0000 C   0  0  0  0  0  0  0  0  0  0  0  0
    1.2343   -0.2637    0.0000 O   0  0  0  0  0  0  0  0  0  0  0  0
    1.7657    0.8715    0.0000 N   0  0  0  0  0  0  0  0  0  0  0  0
    2.5857    0.6898    0.0000 C   0  0  0  0  0  0  0  0  0  0  0  0
    3.2365    1.2507    0.0000 C   0  0  0  0  0  0  0  0  0  0  0  0
    4.0168    0.9402    0.0000 C   0  0  0  0  0  0  0  0  0  0  0  0
    4.7045    1.4209    0.0000 C   0  0  0  0  0  0  0  0  0  0  0  0
    4.5925    2.2511    0.0000 C   0  0  0  0  0  0  0  0  0  0  0  0
    3.8309    2.5865    0.0000 C   0  0  0  0  0  0  0  0  0  0  0  0
    3.1641    2.0888    0.0000 C   0  0  0  0  0  0  0  0  0  0  0  0
    5.2517    2.7471    0.0000 O   0  0  0  0  0  0  0  0  0  0  0  0
    5.4364    0.9959    0.0000 C   0  0  0  0  0  0  0  0  0  0  0  0
    5.9945    1.6034    0.0000 C   0  0  0  0  0  0  0  0  0  0  0  0
    6.7997    1.4239    0.0000 C   0  0  0  0  0  0  0  0  0  0  0  0
    7.0468    0.6367    0.0000 C   0  0  0  0  0  0  0  0  0  0  0  0
    6.4887    0.0292    0.0000 C   0  0  0  0  0  0  0  0  0  0  0  0
    5.6834    0.2088    0.0000 C   0  0  0  0  0  0  0  0  0  0  0  0
    5.2359   -0.4999    0.0000 C   0  0  0  0  0  0  0  0  0  0  0  0
    5.1227   -1.3229    0.0000 N   0  0  0  0  0  0  0  0  0  0  0  0
    4.4074   -1.7429    0.0000 C   0  0  0  0  0  0  0  0  0  0  0  0
    4.5455   -2.5563    0.0000 O   0  0  0  0  0  0  0  0  0  0  0  0
    3.5829   -1.5804    0.0000 C   0  0  0  0  0  0  0  0  0  0  0  0
    3.2743   -2.3726    0.0000 C   0  0  0  0  0  0  0  0  0  0  0  0
    2.5398   -2.8011    0.0000 C   0  0  0  0  0  0  0  0  0  0  0  0
    2.0956   -3.5202    0.0000 C   0  0  0  0  0  0  0  0  0  0  0  0
    1.2621   -3.5096    0.0000 C   0  0  0  0  0  0  0  0  0  0  0  0
    0.8449   -2.7802    0.0000 C   0  0  0  0  0  0  0  0  0  0  0  0
    0.0800   -2.4235    0.0000 O   0  0  0  0  0  0  0  0  0  0  0  0
    1.2837   -2.0718    0.0000 C   0  0  0  0  0  0  0  0  0  0  0  0
    2.1066   -2.0862    0.0000 C   0  0  0  0  0  0  0  0  0  0  0  0
    0.8436   -4.2206    0.0000 Cl  0  0  0  0  0  0  0  0  0  0  0  0
    3.9015   -2.9085    0.0000 O   0  0  0  0  0  0  0  0  0  0  0  0
    3.1871   -0.8265    0.0000 N   0  0  0  0  0  0  0  0  0  0  0  0
    2.6876   -0.1508    0.0000 C   0  0  0  0  0  0  0  0  0  0  0  0
    1.9210   -0.4557    0.0000 O   0  0  0  0  0  0  0  0  0  0  0  0
    6.0109   -0.7828    0.0000 C   0  0  0  0  0  0  0  0  0  0  0  0
    6.1534   -1.5954    0.0000 O   0  0  0  0  0  0  0  0  0  0  0  0
    6.6433   -0.2531    0.0000 O   0  0  0  0  0  0  0  0  0  0  0  0
    7.8520    0.4572    0.0000 O   0  0  0  0  0  0  0  0  0  0  0  0
    5.7474    2.3906    0.0000 O   0  0  0  0  0  0  0  0  0  0  0  0
    0.3858    3.4232    0.0000 C   0  0  0  0  0  0  0  0  0  0  0  0
    0.2030    4.2277    0.0000 C   0  0  0  0  0  0  0  0  0  0  0  0
    0.8083    4.7883    0.0000 O   0  0  0  0  0  0  0  0  0  0  0  0
   -0.5851    4.4717    0.0000 N   0  0  0  0  0  0  0  0  0  0  0  0
   -3.0392    3.7479    0.0000 N   0  0  0  0  0  0  0  0  0  0  0  0
   -2.6684    4.4848    0.0000 C   0  0  0  0  0  0  0  0  0  0  0  0
   -1.8447    4.5322    0.0000 O   0  0  0  0  0  0  0  0  0  0  0  0
   -3.1212    5.1745    0.0000 C   0  0  0  0  0  0  0  0  0  0  0  0
   -2.7504    5.9114    0.0000 C   0  0  0  0  0  0  0  0  0  0  0  0
   -3.2032    6.6010    0.0000 C   0  0  0  0  0  0  0  0  0  0  0  0
   -4.0268    6.5537    0.0000 C   0  0  0  0  0  0  0  0  0  0  0  0
   -2.8324    7.3380    0.0000 C   0  0  0  0  0  0  0  0  0  0  0  0
   -3.9448    5.1271    0.0000 N   0  0  0  0  0  0  0  0  0  0  0  0
   -4.3157    4.3902    0.0000 C   0  0  0  0  0  0  0  0  0  0  0  0
   -3.8921    2.8792    0.0000 O   0  0  0  0  0  0  0  0  0  0  0  0
   -1.6911    0.3115    0.0000 Cl  0  0  0  0  0  0  0  0  0  0  0  0
   -4.1033   -0.6738    0.0000 C   0  0  0  0  0  0  0  0  0  0  0  0
   -4.9249   -0.5993    0.0000 O   0  0  0  0  0  0  0  0  0  0  0  0
   -5.0540   -2.0224    0.0000 O   0  0  0  0  0  0  0  0  0  0  0  0
   -4.3615   -3.5200    0.0000 O   0  0  0  0  0  0  0  0  0  0  0  0
   -3.3685   -6.5902    0.0000 C   0  0  0  0  0  0  0  0  0  0  0  0
   -2.6654   -6.2651    0.0000 N   0  0  0  0  0  0  0  0  0  0  0  0
   -4.6197   -6.3662    0.0000 O   0  0  0  0  0  0  0  0  0  0  0  0
    9.8556    0.0000    0.0000 Cl  0  0  0  0  0  0  0  0  0  0  0  0
  1  2  1  0  0  0  0
  2  3  1  0  0  0  0
  3  4  1  0  0  0  0
  4  5  1  0  0  0  0
  5  6  1  0  0  0  0
  6  7  1  0  0  0  0
  2  7  1  0  0  0  0
  6  8  1  0  0  0  0
  8  9  1  0  0  0  0
  9 10  1  0  0  0  0
 10 11  1  0  0  0  0
 11 12  1  0  0  0  0
 12 13  1  0  0  0  0
 13 14  1  0  0  0  0
  9 14  1  0  0  0  0
 14 15  1  0  0  0  0
 15 16  1  0  0  0  0
 16 17  2  0  0  0  0
 17 18  1  0  0  0  0
 18 19  2  0  0  0  0
 19 20  1  0  0  0  0
 20 21  2  0  0  0  0
 16 21  1  0  0  0  0
 21 22  1  0  0  0  0
 22 23  1  0  0  0  0
 23 24  2  0  0  0  0
 24 25  1  0  0  0  0
 25 26  2  0  0  0  0
 26 27  1  0  0  0  0
 27 28  2  0  0  0  0
 23 28  1  0  0  0  0
 26 29  1  0  0  0  0
 29 30  1  0  0  0  0
 30 31  1  0  0  0  0
 31 32  2  0  0  0  0
 31 33  1  0  0  0  0
 33 34  1  0  0  0  0
 34 35  1  0  0  0  0
 35 36  2  0  0  0  0
 35 37  1  0  0  0  0
 37 38  1  0  0  0  0
 19 38  1  0  0  0  0
 38 39  1  0  0  0  0
 39 40  2  0  0  0  0
 39 41  1  0  0  0  0
 41 42  1  0  0  0  0
 42 43  1  0  0  0  0
 43 44  2  0  0  0  0
 44 45  1  0  0  0  0
 45 46  2  0  0  0  0
 46 47  1  0  0  0  0
 47 48  2  0  0  0  0
 43 48  1  0  0  0  0
 46 49  1  0  0  0  0
 45 50  1  0  0  0  0
 50 51  2  0  0  0  0
 51 52  1  0  0  0  0
 52 53  2  0  0  0  0
 53 54  1  0  0  0  0
 54 55  2  0  0  0  0
 50 55  1  0  0  0  0
 55 56  1  0  0  0  0
 56 57  1  0  0  0  0
 57 58  1  0  0  0  0
 58 59  2  0  0  0  0
 58 60  1  0  0  0  0
 60 61  1  0  0  0  0
 61 62  1  0  0  0  0
 62 63  2  0  0  0  0
 63 64  1  0  0  0  0
 64 65  2  0  0  0  0
 65 66  1  0  0  0  0
 17 66  1  0  0  0  0
 65 67  1  0  0  0  0
 67 68  2  0  0  0  0
 62 68  1  0  0  0  0
 64 69  1  0  0  0  0
 61 70  1  0  0  0  0
 60 71  1  0  0  0  0
 71 72  1  0  0  0  0
 42 72  1  0  0  0  0
 72 73  2  0  0  0  0
 56 74  1  0  0  0  0
 74 75  2  0  0  0  0
 74 76  1  0  0  0  0
 53 77  1  0  0  0  0
 51 78  1  0  0  0  0
 34 79  1  0  0  0  0
 79 80  1  0  0  0  0
 80 81  2  0  0  0  0
 80 82  1  0  0  0  0
 30 83  1  0  0  0  0
 83 84  1  0  0  0  0
 84 85  2  0  0  0  0
 84 86  1  0  0  0  0
 86 87  1  0  0  0  0
 87 88  1  0  0  0  0
 88 89  1  0  0  0  0
 88 90  1  0  0  0  0
 86 91  1  0  0  0  0
 91 92  1  0  0  0  0
 29 93  1  0  0  0  0
 24 94  1  0  0  0  0
 12 95  1  0  0  0  0
 95 96  1  0  0  0  0
 11 97  1  0  0  0  0
 10 98  1  0  0  0  0
  4 99  1  0  0  0  0
  4100  1  0  0  0  0
  3101  1  0  0  0  0
M  END
>  <Name>
Vancomycin HCl

>  <CAS>
1404-93-9

>  <Formula>
C67H77Cl3N8O24

>  <MolWt>
1485.71 

>  <Bioactivity>
Vancomycin hydrochloride (Vancocin) is used in the prophylaxis and treatment of infections caused by Gram-positive bacteria. Vancomycin acts by inhibiting proper cell wall synthesis in Gram-positive bacteria.

>  <Pathways>
Microbiology & Virology

>  <Target>
Antibiotic

>  <Receptor>
Cell wall

>  <Reference>
1. Reynolds PE. Eur J Clin Microbiol Infect Dis. 1989, 8(11):943-50. 

$$$$
23210-58-4
  Mrv1561503291623562D          

 58 61  0  0  1  0            999 V2000
    0.3572    0.2063    0.0000 C   0  0  2  0  0  0  0  0  0  0  0  0
    0.3572    1.0313    0.0000 O   0  0  0  0  0  0  0  0  0  0  0  0
   -0.3572   -0.2062    0.0000 C   0  0  1  0  0  0  0  0  0  0  0  0
   -0.3572   -1.0312    0.0000 O   0  0  0  0  0  0  0  0  0  0  0  0
   -1.0717    0.2063    0.0000 C   0  0  0  0  0  0  0  0  0  0  0  0
   -1.7862   -0.2063    0.0000 O   0  0  0  0  0  0  0  0  0  0  0  0
   -1.0717    1.0312    0.0000 O   0  0  0  0  0  0  0  0  0  0  0  0
    1.0717   -0.2062    0.0000 C   0  0  0  0  0  0  0  0  0  0  0  0
    1.7862    0.2063    0.0000 O   0  0  0  0  0  0  0  0  0  0  0  0
    1.0717   -1.0312    0.0000 O   0  0  0  0  0  0  0  0  0  0  0  0
    8.6732   -2.3719    0.0000 C   0  0  0  0  0  0  0  0  0  0  0  0
    9.3877   -1.9594    0.0000 C   0  0  0  0  0  0  0  0  0  0  0  0
    9.3877   -1.1344    0.0000 C   0  0  0  0  0  0  0  0  0  0  0  0
    8.6732   -0.7219    0.0000 C   0  0  0  0  0  0  0  0  0  0  0  0
    7.9587   -1.1344    0.0000 C   0  0  0  0  0  0  0  0  0  0  0  0
    7.2442   -0.7219    0.0000 C   0  0  0  0  0  0  0  0  0  0  0  0
    7.2442    0.1031    0.0000 N   0  0  0  0  0  0  0  0  0  0  0  0
    7.9587    0.5156    0.0000 C   0  0  0  0  0  0  0  0  0  0  0  0
    8.6732    0.1031    0.0000 C   0  0  0  0  0  0  0  0  0  0  0  0
    6.5298    0.5156    0.0000 C   0  0  0  0  0  0  0  0  0  0  0  0
    6.5298    1.3406    0.0000 C   0  0  0  0  0  0  0  0  0  0  0  0
    7.2442    1.7531    0.0000 O   0  0  0  0  0  0  0  0  0  0  0  0
    5.8153    1.7531    0.0000 C   0  0  0  0  0  0  0  0  0  0  0  0
    5.1008    1.3406    0.0000 C   0  0  0  0  0  0  0  0  0  0  0  0
    4.3864    1.7531    0.0000 C   0  0  0  0  0  0  0  0  0  0  0  0
    4.3864    2.5781    0.0000 C   0  0  0  0  0  0  0  0  0  0  0  0
    3.6719    2.9906    0.0000 O   0  0  0  0  0  0  0  0  0  0  0  0
    5.1008    2.9906    0.0000 C   0  0  0  0  0  0  0  0  0  0  0  0
    5.8153    2.5781    0.0000 C   0  0  0  0  0  0  0  0  0  0  0  0
    5.8153    0.1031    0.0000 C   0  0  0  0  0  0  0  0  0  0  0  0
   10.1021   -2.3719    0.0000 C   0  0  0  0  0  0  0  0  0  0  0  0
   10.1021   -3.1969    0.0000 C   0  0  0  0  0  0  0  0  0  0  0  0
    9.3877   -3.6094    0.0000 C   0  0  0  0  0  0  0  0  0  0  0  0
    8.6732   -3.1969    0.0000 C   0  0  0  0  0  0  0  0  0  0  0  0
    1.4289  -10.6219    0.0000 C   0  0  0  0  0  0  0  0  0  0  0  0
    2.1434  -10.2094    0.0000 C   0  0  0  0  0  0  0  0  0  0  0  0
    2.1434   -9.3844    0.0000 C   0  0  0  0  0  0  0  0  0  0  0  0
    1.4289   -8.9719    0.0000 C   0  0  0  0  0  0  0  0  0  0  0  0
    0.7145   -9.3844    0.0000 C   0  0  0  0  0  0  0  0  0  0  0  0
    0.0000   -8.9719    0.0000 C   0  0  0  0  0  0  0  0  0  0  0  0
   -0.0000   -8.1469    0.0000 N   0  0  0  0  0  0  0  0  0  0  0  0
    0.7145   -7.7344    0.0000 C   0  0  0  0  0  0  0  0  0  0  0  0
    1.4289   -8.1469    0.0000 C   0  0  0  0  0  0  0  0  0  0  0  0
   -0.7145   -7.7344    0.0000 C   0  0  0  0  0  0  0  0  0  0  0  0
   -0.7145   -6.9094    0.0000 C   0  0  0  0  0  0  0  0  0  0  0  0
   -0.0000   -6.4969    0.0000 O   0  0  0  0  0  0  0  0  0  0  0  0
   -1.4289   -6.4969    0.0000 C   0  0  0  0  0  0  0  0  0  0  0  0
   -2.1434   -6.9094    0.0000 C   0  0  0  0  0  0  0  0  0  0  0  0
   -2.8579   -6.4969    0.0000 C   0  0  0  0  0  0  0  0  0  0  0  0
   -2.8579   -5.6719    0.0000 C   0  0  0  0  0  0  0  0  0  0  0  0
   -3.5724   -5.2594    0.0000 O   0  0  0  0  0  0  0  0  0  0  0  0
   -2.1434   -5.2594    0.0000 C   0  0  0  0  0  0  0  0  0  0  0  0
   -1.4289   -5.6719    0.0000 C   0  0  0  0  0  0  0  0  0  0  0  0
   -1.4289   -8.1469    0.0000 C   0  0  0  0  0  0  0  0  0  0  0  0
    2.8579  -10.6219    0.0000 C   0  0  0  0  0  0  0  0  0  0  0  0
    2.8579  -11.4469    0.0000 C   0  0  0  0  0  0  0  0  0  0  0  0
    2.1434  -11.8594    0.0000 C   0  0  0  0  0  0  0  0  0  0  0  0
    1.4289  -11.4469    0.0000 C   0  0  0  0  0  0  0  0  0  0  0  0
  1  2  1  1  0  0  0
  1  3  1  0  0  0  0
  3  4  1  1  0  0  0
  3  5  1  0  0  0  0
  5  6  1  0  0  0  0
  5  7  2  0  0  0  0
  1  8  1  0  0  0  0
  8  9  1  0  0  0  0
  8 10  2  0  0  0  0
 11 12  2  0  0  0  0
 12 13  1  0  0  0  0
 13 14  1  0  0  0  0
 14 15  1  0  0  0  0
 15 16  1  0  0  0  0
 16 17  1  0  0  0  0
 17 18  1  0  0  0  0
 18 19  1  0  0  0  0
 14 19  1  0  0  0  0
 17 20  1  0  0  0  0
 20 21  1  0  0  0  0
 21 22  1  0  0  0  0
 21 23  1  0  0  0  0
 23 24  2  0  0  0  0
 24 25  1  0  0  0  0
 25 26  2  0  0  0  0
 26 27  1  0  0  0  0
 26 28  1  0  0  0  0
 28 29  2  0  0  0  0
 23 29  1  0  0  0  0
 20 30  1  0  0  0  0
 12 31  1  0  0  0  0
 31 32  2  0  0  0  0
 32 33  1  0  0  0  0
 33 34  2  0  0  0  0
 11 34  1  0  0  0  0
 35 36  2  0  0  0  0
 36 37  1  0  0  0  0
 37 38  1  0  0  0  0
 38 39  1  0  0  0  0
 39 40  1  0  0  0  0
 40 41  1  0  0  0  0
 41 42  1  0  0  0  0
 42 43  1  0  0  0  0
 38 43  1  0  0  0  0
 41 44  1  0  0  0  0
 44 45  1  0  0  0  0
 45 46  1  0  0  0  0
 45 47  1  0  0  0  0
 47 48  2  0  0  0  0
 48 49  1  0  0  0  0
 49 50  2  0  0  0  0
 50 51  1  0  0  0  0
 50 52  1  0  0  0  0
 52 53  2  0  0  0  0
 47 53  1  0  0  0  0
 44 54  1  0  0  0  0
 36 55  1  0  0  0  0
 55 56  2  0  0  0  0
 56 57  1  0  0  0  0
 57 58  2  0  0  0  0
 35 58  1  0  0  0  0
M  END
>  <Name>
Ifenprodil Tartrate

>  <CAS>
23210-58-4

>  <Formula>
C21H27NO2.1/2C4H6O6

>  <MolWt>
475.53 

>  <Bioactivity>
Ifenprodil is an atypical noncompetitive antagonist at the NMDA receptor, it interacts with high affinity at a homogeneous population of NMDA receptors in neonatal rat forebrain.

>  <Pathways>
Neuroscience

>  <Target>
GluR antagonist

>  <Receptor>
NMDA Receptor

>  <Reference>
1. Williams K, et al. Mol Pharmacol, 1993, 44(4), 851-859.

$$$$
17440-83-4
  Mrv1561503291623562D          

 19 15  0  0  0  0            999 V2000
    0.4125    0.0000    0.0000 H   0  3  0  0  0  0  0  0  0  0  0  0
    4.1986   -0.0825    0.0000 C   0  0  0  0  0  0  0  0  0  0  0  0
    4.9131   -0.4950    0.0000 C   0  0  0  0  0  0  0  0  0  0  0  0
    4.9131   -1.3200    0.0000 N   0  0  0  0  0  0  0  0  0  0  0  0
    4.1986   -1.7325    0.0000 C   0  0  0  0  0  0  0  0  0  0  0  0
    4.1986   -2.5575    0.0000 N   0  0  0  0  0  0  0  0  0  0  0  0
    3.4841   -1.3200    0.0000 C   0  0  0  0  0  0  0  0  0  0  0  0
    3.4841   -0.4950    0.0000 N   0  0  0  0  0  0  0  0  0  0  0  0
    2.7696   -1.7325    0.0000 Cl  0  0  0  0  0  0  0  0  0  0  0  0
    5.6275   -0.0825    0.0000 N   0  0  0  0  0  0  0  0  0  0  0  0
    4.1986    0.7425    0.0000 C   0  0  0  0  0  0  0  0  0  0  0  0
    4.9131    1.1550    0.0000 O   0  0  0  0  0  0  0  0  0  0  0  0
    3.4841    1.1550    0.0000 N   0  0  0  0  0  0  0  0  0  0  0  0
    3.4841    1.9800    0.0000 C   0  0  0  0  0  0  0  0  0  0  0  0
    2.7696    2.3925    0.0000 N   0  0  0  0  0  0  0  0  0  0  0  0
    4.1986    2.3925    0.0000 N   0  0  0  0  0  0  0  0  0  0  0  0
   -0.4125    0.0000    0.0000 Cl  0  5  0  0  0  0  0  0  0  0  0  0
    0.0000   -4.2075    0.0000 O   0  0  0  0  0  0  0  0  0  0  0  0
    2.3571   -4.2075    0.0000 O   0  0  0  0  0  0  0  0  0  0  0  0
  2  3  2  0  0  0  0
  3  4  1  0  0  0  0
  4  5  2  0  0  0  0
  5  6  1  0  0  0  0
  5  7  1  0  0  0  0
  7  8  2  0  0  0  0
  2  8  1  0  0  0  0
  7  9  1  0  0  0  0
  3 10  1  0  0  0  0
  2 11  1  0  0  0  0
 11 12  2  0  0  0  0
 11 13  1  0  0  0  0
 13 14  2  3  0  0  0
 14 15  1  0  0  0  0
 14 16  1  0  0  0  0
M  CHG  2   1   1  17  -1
M  END
>  <Name>
Amiloride hydrochloride dihydrate

>  <CAS>
17440-83-4

>  <Formula>
C6H8ClN7O.HCl.2H2O

>  <MolWt>
302.12 

>  <Bioactivity>
A pyrazine compound inhibiting SODIUM reabsorption through SODIUM CHANNELS in renal EPITHELIAL CELLS. This inhibition creates a negative potential in the luminal membranes of principal cells, located in the distal convoluted tubule and collecting duct. Negative potential reduces secretion of potassium and hydrogen ions. Amiloride is used in conjunction with DIURETICS to spare POTASSIUM loss. (From Gilman et al., Goodman and Gilman's The Pharmacological Basis of Therapeutics, 9th ed, p705) 

>  <Pathways>
Membrane Transporter/Ion Channel

>  <Target>
Sodium Channel

>  <Receptor>
Amiloride-sensitive sodium channel

>  <Reference>
1. Kelly O, et al. Am J Physiol Renal Physiol. 2003 Dec;285(6):F1279-90. 

$$$$
T0215L
  Mrv1561503291623562D          

 30 33  0  0  0  0            999 V2000
    2.7512   -1.7116    0.0000 C   0  0  0  0  0  0  0  0  0  0  0  0
    3.4656   -1.2991    0.0000 C   0  0  0  0  0  0  0  0  0  0  0  0
    4.1801   -1.7116    0.0000 C   0  0  0  0  0  0  0  0  0  0  0  0
    4.1801   -2.5366    0.0000 C   0  0  0  0  0  0  0  0  0  0  0  0
    3.4656   -2.9491    0.0000 C   0  0  0  0  0  0  0  0  0  0  0  0
    2.7512   -2.5366    0.0000 C   0  0  0  0  0  0  0  0  0  0  0  0
    2.0367   -2.9491    0.0000 C   0  0  0  0  0  0  0  0  0  0  0  0
    2.0367   -3.7741    0.0000 N   0  0  0  0  0  0  0  0  0  0  0  0
    2.7041   -4.2590    0.0000 C   0  0  0  0  0  0  0  0  0  0  0  0
    2.4492   -5.0437    0.0000 N   0  0  0  0  0  0  0  0  0  0  0  0
    1.6242   -5.0437    0.0000 C   0  0  0  0  0  0  0  0  0  0  0  0
    1.3693   -4.2590    0.0000 C   0  0  0  0  0  0  0  0  0  0  0  0
    0.5846   -4.0041    0.0000 C   0  0  0  0  0  0  0  0  0  0  0  0
    0.4131   -3.1971    0.0000 O   0  0  0  0  0  0  0  0  0  0  0  0
    1.1393   -5.7111    0.0000 Cl  0  0  0  0  0  0  0  0  0  0  0  0
    3.4888   -4.0041    0.0000 C   0  0  0  0  0  0  0  0  0  0  0  0
    4.1019   -4.5561    0.0000 C   0  0  0  0  0  0  0  0  0  0  0  0
    4.8865   -4.3012    0.0000 C   0  0  0  0  0  0  0  0  0  0  0  0
    5.4996   -4.8532    0.0000 C   0  0  0  0  0  0  0  0  0  0  0  0
    4.8946   -1.2991    0.0000 C   0  0  0  0  0  0  0  0  0  0  0  0
    4.8946   -0.4741    0.0000 C   0  0  0  0  0  0  0  0  0  0  0  0
    4.1801   -0.0616    0.0000 C   0  0  0  0  0  0  0  0  0  0  0  0
    3.4264   -0.3972    0.0000 N   0  0  0  0  0  0  0  0  0  0  0  0
    2.8744    0.2159    0.0000 N   0  0  0  0  0  0  0  0  0  0  0  0
    3.2869    0.9304    0.0000 N   0  0  0  0  0  0  0  0  0  0  0  0
    4.0939    0.7589    0.0000 N   0  0  0  0  0  0  0  0  0  0  0  0
    5.6091   -0.0616    0.0000 C   0  0  0  0  0  0  0  0  0  0  0  0
    6.3235   -0.4741    0.0000 C   0  0  0  0  0  0  0  0  0  0  0  0
    6.3235   -1.2991    0.0000 C   0  0  0  0  0  0  0  0  0  0  0  0
    5.6091   -1.7116    0.0000 C   0  0  0  0  0  0  0  0  0  0  0  0
  1  2  2  0  0  0  0
  2  3  1  0  0  0  0
  3  4  2  0  0  0  0
  4  5  1  0  0  0  0
  5  6  2  0  0  0  0
  1  6  1  0  0  0  0
  6  7  1  0  0  0  0
  7  8  1  0  0  0  0
  8  9  1  0  0  0  0
  9 10  2  0  0  0  0
 10 11  1  0  0  0  0
 11 12  2  0  0  0  0
  8 12  1  0  0  0  0
 12 13  1  0  0  0  0
 13 14  1  0  0  0  0
 11 15  1  0  0  0  0
  9 16  1  0  0  0  0
 16 17  1  0  0  0  0
 17 18  1  0  0  0  0
 18 19  1  0  0  0  0
  3 20  1  0  0  0  0
 20 21  2  0  0  0  0
 21 22  1  0  0  0  0
 22 23  2  0  0  0  0
 23 24  1  0  0  0  0
 24 25  1  0  0  0  0
 25 26  2  0  0  0  0
 22 26  1  0  0  0  0
 21 27  1  0  0  0  0
 27 28  2  0  0  0  0
 28 29  1  0  0  0  0
 29 30  2  0  0  0  0
 20 30  1  0  0  0  0
M  END
>  <Name>
Losartan

>  <CAS>
114798-26-4

>  <Formula>
C22H23ClN6O

>  <MolWt>
422.91 

>  <Bioactivity>
Losartan is an angiotensin II receptor antagonist.

>  <Pathways>
Endocrinology/ Hormones

>  <Target>
RAAS inhibitor; AGTR inhibitor

>  <Receptor>
AGTR1;RAAS

>  <Reference>
1. Burnier M, et al. Circulation, 2001, 103, 904-912.

$$$$
T0374L
  Mrv1561503291623562D          

 29 31  0  0  0  0            999 V2000
   -5.6689    3.9761    0.0000 C   0  0  0  0  0  0  0  0  0  0  0  0
   -5.4974    4.7830    0.0000 C   0  0  0  0  0  0  0  0  0  0  0  0
   -4.7128    5.0380    0.0000 C   0  0  0  0  0  0  0  0  0  0  0  0
   -4.0997    4.4859    0.0000 C   0  0  0  0  0  0  0  0  0  0  0  0
   -4.2712    3.6790    0.0000 C   0  0  0  0  0  0  0  0  0  0  0  0
   -5.0558    3.4240    0.0000 C   0  0  0  0  0  0  0  0  0  0  0  0
   -5.2274    2.6171    0.0000 F   0  0  0  0  0  0  0  0  0  0  0  0
   -3.3852    4.8984    0.0000 C   0  0  0  0  0  0  0  0  0  0  0  0
   -3.5567    5.7054    0.0000 C   0  0  0  0  0  0  0  0  0  0  0  0
   -4.3772    5.7917    0.0000 N   0  0  0  0  0  0  0  0  0  0  0  0
   -3.0047    6.3185    0.0000 O   0  0  0  0  0  0  0  0  0  0  0  0
   -2.6315    4.5629    0.0000 C   0  0  0  0  0  0  0  0  0  0  0  0
   -1.9641    5.0478    0.0000 C   0  0  0  0  0  0  0  0  0  0  0  0
   -1.1795    4.7929    0.0000 C   0  0  0  0  0  0  0  0  0  0  0  0
   -0.6946    5.4603    0.0000 C   0  0  0  0  0  0  0  0  0  0  0  0
   -1.1795    6.1278    0.0000 C   0  0  0  0  0  0  0  0  0  0  0  0
   -1.9641    5.8728    0.0000 N   0  0  0  0  0  0  0  0  0  0  0  0
   -0.9245    6.9124    0.0000 C   0  0  0  0  0  0  0  0  0  0  0  0
    0.1304    5.4603    0.0000 C   0  0  0  0  0  0  0  0  0  0  0  0
    0.5429    6.1748    0.0000 N   0  0  0  0  0  0  0  0  0  0  0  0
    1.3679    6.1748    0.0000 C   0  0  0  0  0  0  0  0  0  0  0  0
    1.7804    6.8893    0.0000 C   0  0  0  0  0  0  0  0  0  0  0  0
    2.6054    6.8893    0.0000 N   0  0  0  0  0  0  0  0  0  0  0  0
    3.0179    7.6037    0.0000 C   0  0  0  0  0  0  0  0  0  0  0  0
    3.8429    7.6037    0.0000 C   0  0  0  0  0  0  0  0  0  0  0  0
    3.0179    6.1748    0.0000 C   0  0  0  0  0  0  0  0  0  0  0  0
    3.8429    6.1748    0.0000 C   0  0  0  0  0  0  0  0  0  0  0  0
    0.5429    4.7458    0.0000 O   0  0  0  0  0  0  0  0  0  0  0  0
   -0.9245    4.0083    0.0000 C   0  0  0  0  0  0  0  0  0  0  0  0
  1  2  2  0  0  0  0
  2  3  1  0  0  0  0
  3  4  2  0  0  0  0
  4  5  1  0  0  0  0
  5  6  2  0  0  0  0
  1  6  1  0  0  0  0
  6  7  1  0  0  0  0
  4  8  1  0  0  0  0
  8  9  1  0  0  0  0
  9 10  1  0  0  0  0
  3 10  1  0  0  0  0
  9 11  2  0  0  0  0
  8 12  2  0  0  0  0
 12 13  1  0  0  0  0
 13 14  2  0  0  0  0
 14 15  1  0  0  0  0
 15 16  2  0  0  0  0
 16 17  1  0  0  0  0
 13 17  1  0  0  0  0
 16 18  1  0  0  0  0
 15 19  1  0  0  0  0
 19 20  1  0  0  0  0
 20 21  1  0  0  0  0
 21 22  1  0  0  0  0
 22 23  1  0  0  0  0
 23 24  1  0  0  0  0
 24 25  1  0  0  0  0
 23 26  1  0  0  0  0
 26 27  1  0  0  0  0
 19 28  2  0  0  0  0
 14 29  1  0  0  0  0
M  END
>  <Name>
Sunitinib

>  <CAS>
557795-19-4

>  <Formula>
C22H27FN4O2

>  <MolWt>
398.47 

>  <Bioactivity>
Sunitinib is a multi-targeted RTK inhibitor targeting VEGFR2 (Flk-1) and PDGFR? with IC50 of 80 nM and 2 nM, and also inhibits c-Kit.

>  <Pathways>
Tyrosine Kinase/Adaptors

>  <Target>
RTK inhibitor;RTK inhibitor;MRP inhibitor

>  <Receptor>
Kit, FLT3, c-Kit ; PDGFR, VEGFR ;MRP1

>  <Reference>
1. Sun L, et al. J Med Chem, 2003, 46(7), 1116-1119.

$$$$
T0909L
  Mrv1561503291623562D          

 18 18  0  0  0  0            999 V2000
   -0.0000    0.0000    0.0000 C   0  0  0  0  0  0  0  0  0  0  0  0
   -0.7145   -0.4125    0.0000 C   0  0  0  0  0  0  0  0  0  0  0  0
   -0.7145   -1.2375    0.0000 C   0  0  0  0  0  0  0  0  0  0  0  0
   -0.0000   -1.6500    0.0000 N   0  0  0  0  0  0  0  0  0  0  0  0
    0.7145   -1.2375    0.0000 C   0  0  0  0  0  0  0  0  0  0  0  0
    0.7145   -0.4125    0.0000 C   0  0  0  0  0  0  0  0  0  0  0  0
    1.4289    0.0000    0.0000 C   0  0  0  0  0  0  0  0  0  0  0  0
    2.1434   -0.4125    0.0000 C   0  0  0  0  0  0  0  0  0  0  0  0
    2.1434   -1.2375    0.0000 C   0  0  0  0  0  0  0  0  0  0  0  0
    1.4289   -1.6500    0.0000 N   0  0  0  0  0  0  0  0  0  0  0  0
    1.4289   -2.4750    0.0000 C   0  0  0  0  0  0  0  0  0  0  0  0
    0.7145   -2.8875    0.0000 C   0  0  0  0  0  0  0  0  0  0  0  0
    2.8579    0.0000    0.0000 C   0  0  0  0  0  0  0  0  0  0  0  0
    3.5724   -0.4125    0.0000 O   0  0  0  0  0  0  0  0  0  0  0  0
    2.8579    0.8250    0.0000 O   0  5  0  0  0  0  0  0  0  0  0  0
    1.4289    0.8250    0.0000 O   0  0  0  0  0  0  0  0  0  0  0  0
   -1.4289   -1.6500    0.0000 C   0  0  0  0  0  0  0  0  0  0  0  0
    2.8579    1.6500    0.0000 Na  0  3  0  0  0  0  0  0  0  0  0  0
  1  2  2  0  0  0  0
  2  3  1  0  0  0  0
  3  4  2  0  0  0  0
  4  5  1  0  0  0  0
  5  6  2  0  0  0  0
  1  6  1  0  0  0  0
  6  7  1  0  0  0  0
  7  8  1  0  0  0  0
  8  9  2  0  0  0  0
  9 10  1  0  0  0  0
  5 10  1  0  0  0  0
 10 11  1  0  0  0  0
 11 12  1  0  0  0  0
  8 13  1  0  0  0  0
 13 14  2  0  0  0  0
 13 15  1  0  0  0  0
  7 16  2  0  0  0  0
  3 17  1  0  0  0  0
M  CHG  2  15  -1  18   1
M  END
>  <Name>
Nalidixic acid sodium salt

>  <CAS>
3374-05-8

>  <Formula>
C12H11N2NaO3

>  <MolWt>
254.22 

>  <Bioactivity>
A synthetic 1,8-naphthyridine antimicrobial agent with a limited bacteriocidal spectrum. It is an inhibitor of the A subunit of bacterial DNA GYRASE. 

>  <Pathways>
DNA Damage/DNA Repair

>  <Target>
Topoisomerase inhibitor

>  <Receptor>
Topoisomerase II

>  <Reference>
1. Jain A, Rajeswari MR. J Biomol Struct Dyn. 2002 Oct;20(2):291-9.

$$$$
52-66-4
  Mrv1561503291623562D          

  9  8  0  0  0  0            999 V2000
    0.8250   -0.8250    0.0000 C   0  0  0  0  0  0  0  0  0  0  0  0
    0.8250    0.0000    0.0000 C   0  0  0  0  0  0  0  0  0  0  0  0
    0.8250    0.8250    0.0000 C   0  0  0  0  0  0  0  0  0  0  0  0
    1.5395    1.2375    0.0000 C   0  0  0  0  0  0  0  0  0  0  0  0
    1.5395    2.0625    0.0000 O   0  0  0  0  0  0  0  0  0  0  0  0
    2.2539    0.8250    0.0000 O   0  0  0  0  0  0  0  0  0  0  0  0
    0.1105    1.2375    0.0000 N   0  0  0  0  0  0  0  0  0  0  0  0
    1.6500   -0.0000    0.0000 C   0  0  0  0  0  0  0  0  0  0  0  0
    0.0000    0.0000    0.0000 S   0  0  0  0  0  0  0  0  0  0  0  0
  1  2  1  0  0  0  0
  2  3  1  0  0  0  0
  3  4  1  0  0  0  0
  4  5  1  0  0  0  0
  4  6  2  0  0  0  0
  3  7  1  0  0  0  0
  2  8  1  0  0  0  0
  2  9  1  0  0  0  0
M  END
>  <Name>
DL-Penicillamine

>  <CAS>
52-66-4

>  <Formula>
C5H11NO2S

>  <MolWt>
149.21 

>  <Bioactivity>
The most characteristic degradation product of the penicillin antibiotics. It is used as an antirheumatic and as a chelating agent in Wilson's disease. .

>  <Pathways>
Others

>  <Target>
Others

>  <Receptor>
Others

>  <Reference>
1. Brewer GJ. Expert Opin Pharmacother. 2006, 7(3):317-24

$$$$
T1495
  Mrv1561503291623562D          

 25 26  0  0  1  0            999 V2000
    1.3406    0.2738    0.0000 C   0  0  1  0  0  0  0  0  0  0  0  0
    2.0551    0.6863    0.0000 S   0  0  0  0  0  0  0  0  0  0  0  0
    2.7696    0.2738    0.0000 C   0  0  0  0  0  0  0  0  0  0  0  0
    2.7696   -0.5512    0.0000 C   0  0  0  0  0  0  0  0  0  0  0  0
    2.0551   -0.9637    0.0000 C   0  0  0  0  0  0  0  0  0  0  0  0
    1.3406   -0.5512    0.0000 N   0  0  0  0  0  0  0  0  0  0  0  0
    0.5156   -0.5512    0.0000 C   0  0  0  0  0  0  0  0  0  0  0  0
   -0.0677   -1.1345    0.0000 O   0  0  0  0  0  0  0  0  0  0  0  0
    0.5156    0.2738    0.0000 C   0  0  1  0  0  0  0  0  0  0  0  0
   -0.0677    0.8572    0.0000 N   0  0  0  0  0  0  0  0  0  0  0  0
   -0.8646    0.6437    0.0000 C   0  0  0  0  0  0  0  0  0  0  0  0
   -1.0781   -0.1532    0.0000 O   0  0  0  0  0  0  0  0  0  0  0  0
   -1.4480    1.2270    0.0000 C   0  0  2  0  0  0  0  0  0  0  0  0
   -1.2345    2.0239    0.0000 N   0  0  0  0  0  0  0  0  0  0  0  0
   -2.2449    1.0135    0.0000 C   0  0  0  0  0  0  0  0  0  0  0  0
   -2.4584    0.2166    0.0000 C   0  0  0  0  0  0  0  0  0  0  0  0
   -3.2553    0.0031    0.0000 C   0  0  0  0  0  0  0  0  0  0  0  0
   -3.8386    0.5865    0.0000 C   0  0  0  0  0  0  0  0  0  0  0  0
   -3.6251    1.3833    0.0000 C   0  0  0  0  0  0  0  0  0  0  0  0
   -2.8282    1.5969    0.0000 C   0  0  0  0  0  0  0  0  0  0  0  0
    2.0551   -1.7887    0.0000 C   0  0  0  0  0  0  0  0  0  0  0  0
    2.7696   -2.2012    0.0000 O   0  0  0  0  0  0  0  0  0  0  0  0
    1.3406   -2.2012    0.0000 O   0  0  0  0  0  0  0  0  0  0  0  0
    3.4840   -0.9637    0.0000 Cl  0  0  0  0  0  0  0  0  0  0  0  0
    5.8412    0.0000    0.0000 O   0  0  0  0  0  0  0  0  0  0  0  0
  1  2  1  0  0  0  0
  2  3  1  0  0  0  0
  3  4  1  0  0  0  0
  4  5  2  0  0  0  0
  5  6  1  0  0  0  0
  1  6  1  1  0  0  0
  6  7  1  0  0  0  0
  7  8  2  0  0  0  0
  7  9  1  0  0  0  0
  1  9  1  0  0  0  0
  9 10  1  1  0  0  0
 10 11  1  0  0  0  0
 11 12  2  0  0  0  0
 11 13  1  0  0  0  0
 13 14  1  1  0  0  0
 13 15  1  0  0  0  0
 15 16  2  0  0  0  0
 16 17  1  0  0  0  0
 17 18  2  0  0  0  0
 18 19  1  0  0  0  0
 19 20  2  0  0  0  0
 15 20  1  0  0  0  0
  5 21  1  0  0  0  0
 21 22  2  0  0  0  0
 21 23  1  0  0  0  0
  4 24  1  0  0  0  0
M  END
>  <Name>
Cefaclor monohydrate

>  <CAS>
70356-03-5

>  <Formula>
C15H16CIN3O5S

>  <MolWt>
385.82 

>  <Bioactivity>
Semisynthetic, broad-spectrum antibiotic derivative of cephalexin. 

>  <Pathways>
Microbiology & Virology

>  <Target>
Antibiotic

>  <Receptor>
PBPs

>  <Reference>
1. Chambers HF, Miick C. Antimicrob Agents Chemother. 1992 Mar;36(3):656-61.

$$$$
38821-49-7
  Mrv1561503291623562D          

 17 16  0  0  1  0            999 V2000
    0.0000    0.0000    0.0000 O   0  0  0  0  0  0  0  0  0  0  0  0
    4.4416    0.3495    0.0000 C   0  0  0  0  0  0  0  0  0  0  0  0
    4.0291    1.0639    0.0000 C   0  0  1  0  0  0  0  0  0  0  0  0
    3.3147    0.6514    0.0000 C   0  0  0  0  0  0  0  0  0  0  0  0
    3.3147   -0.1736    0.0000 C   0  0  0  0  0  0  0  0  0  0  0  0
    4.0291   -0.5861    0.0000 C   0  0  0  0  0  0  0  0  0  0  0  0
    4.0291   -1.4111    0.0000 C   0  0  0  0  0  0  0  0  0  0  0  0
    3.3147   -1.8236    0.0000 C   0  0  0  0  0  0  0  0  0  0  0  0
    3.3147   -2.6486    0.0000 O   0  0  0  0  0  0  0  0  0  0  0  0
    2.6002   -1.4111    0.0000 C   0  0  0  0  0  0  0  0  0  0  0  0
    1.8857   -1.8236    0.0000 O   0  0  0  0  0  0  0  0  0  0  0  0
    2.6002   -0.5861    0.0000 C   0  0  0  0  0  0  0  0  0  0  0  0
    3.6166    1.7784    0.0000 N   0  0  0  0  0  0  0  0  0  0  0  0
    2.7916    1.7784    0.0000 N   0  0  0  0  0  0  0  0  0  0  0  0
    4.7436    1.4764    0.0000 C   0  0  0  0  0  0  0  0  0  0  0  0
    4.7436    2.3014    0.0000 O   0  0  0  0  0  0  0  0  0  0  0  0
    5.4581    1.0639    0.0000 O   0  0  0  0  0  0  0  0  0  0  0  0
  3  2  1  1  0  0  0
  3  4  1  0  0  0  0
  4  5  1  0  0  0  0
  5  6  4  0  0  0  0
  6  7  4  0  0  0  0
  7  8  4  0  0  0  0
  8  9  1  0  0  0  0
  8 10  4  0  0  0  0
 10 11  1  0  0  0  0
 10 12  4  0  0  0  0
  5 12  4  0  0  0  0
  3 13  1  1  0  0  0
 13 14  1  0  0  0  0
  3 15  1  0  0  0  0
 15 16  1  0  0  0  0
 15 17  2  0  0  0  0
M  END
>  <Name>
Carbidopa Hydrate

>  <CAS>
38821-49-7

>  <Formula>
C10H16N2O5

>  <MolWt>
244.24 

>  <Bioactivity>
An inhibitor of DOPA decarboxylase, preventing conversion of levodopa to dopamine. It is used in parkinson disease to reduce peripheral adverse effects of levodopa. It has no antiparkinson actions by itself. 

>  <Pathways>
Neuroscience

>  <Target>
Dopa decarboxylase inhibitor

>  <Receptor>
Aromatic-L-amino-acid decarboxylase

>  <Reference>
1. Orlefors H, et al. Eur J Nucl Med Mol Imaging. 2006 Jan;33(1):60-5.

$$$$
T2526
  Mrv1561503291623562D          

 39 44  0  0  1  0            999 V2000
    0.8348   -4.5841    0.0000 C   0  0  1  0  0  0  0  0  0  0  0  0
    1.6557   -4.6657    0.0000 C   0  0  2  0  0  0  0  0  0  0  0  0
    1.9870   -3.9101    0.0000 C   0  0  2  0  0  0  0  0  0  0  0  0
    2.8070   -3.8193    0.0000 C   0  0  1  0  0  0  0  0  0  0  0  0
    3.2957   -4.4840    0.0000 C   0  0  1  0  0  0  0  0  0  0  0  0
    4.1157   -4.3931    0.0000 C   0  0  2  0  0  0  0  0  0  0  0  0
    4.4470   -3.6375    0.0000 C   0  0  0  0  0  0  0  0  0  0  0  0
    5.2669   -3.5467    0.0000 C   0  0  0  0  0  0  0  0  0  0  0  0
    5.7556   -4.2114    0.0000 C   0  0  0  0  0  0  0  0  0  0  0  0
    6.5756   -4.1205    0.0000 O   0  0  0  0  0  0  0  0  0  0  0  0
    5.4243   -4.9669    0.0000 C   0  0  0  0  0  0  0  0  0  0  0  0
    4.6043   -5.0578    0.0000 C   0  0  0  0  0  0  0  0  0  0  0  0
    3.9583   -2.9728    0.0000 C   0  0  0  0  0  0  0  0  0  0  0  0
    3.1383   -3.0637    0.0000 C   0  0  0  0  0  0  0  0  0  0  0  0
    3.7844   -5.1487    0.0000 C   0  0  0  0  0  0  0  0  0  0  0  0
    2.9644   -5.2395    0.0000 C   0  0  2  0  0  0  0  0  0  0  0  0
    2.1444   -5.3304    0.0000 C   0  0  0  0  0  0  0  0  0  0  0  0
    3.4531   -5.9042    0.0000 O   0  0  0  0  0  0  0  0  0  0  0  0
    1.3708   -3.3615    0.0000 C   0  0  0  0  0  0  0  0  0  0  0  0
    0.6587   -3.7781    0.0000 C   0  0  1  0  0  0  0  0  0  0  0  0
   -0.1623   -3.6965    0.0000 O   0  0  0  0  0  0  0  0  0  0  0  0
   -0.4936   -4.4520    0.0000 C   0  0  2  0  0  0  0  0  0  0  0  0
    0.1226   -5.0006    0.0000 O   0  0  0  0  0  0  0  0  0  0  0  0
   -1.2996   -4.6281    0.0000 C   0  0  0  0  0  0  0  0  0  0  0  0
   -1.5501   -5.4141    0.0000 C   0  0  0  0  0  0  0  0  0  0  0  0
   -2.3561   -5.5902    0.0000 C   0  0  0  0  0  0  0  0  0  0  0  0
   -2.9115   -4.9802    0.0000 C   0  0  0  0  0  0  0  0  0  0  0  0
   -2.6610   -4.1942    0.0000 C   0  0  0  0  0  0  0  0  0  0  0  0
   -1.8550   -4.0181    0.0000 C   0  0  0  0  0  0  0  0  0  0  0  0
    1.2472   -5.3825    0.0000 C   0  0  0  0  0  0  0  0  0  0  0  0
    0.7532   -5.4050    0.0000 C   0  0  0  0  0  0  0  0  0  0  0  0
    0.0014   -5.7448    0.0000 C   0  0  0  0  0  0  0  0  0  0  0  0
   -0.0802   -6.5658    0.0000 O   0  0  0  0  0  0  0  0  0  0  0  0
   -0.8320   -6.9056    0.0000 C   0  0  0  0  0  0  0  0  0  0  0  0
   -0.9136   -7.7265    0.0000 C   0  0  0  0  0  0  0  0  0  0  0  0
   -0.2435   -8.2077    0.0000 C   0  0  0  0  0  0  0  0  0  0  0  0
   -1.6654   -8.0663    0.0000 C   0  0  0  0  0  0  0  0  0  0  0  0
   -1.5022   -6.4244    0.0000 O   0  0  0  0  0  0  0  0  0  0  0  0
    1.4233   -5.8862    0.0000 O   0  0  0  0  0  0  0  0  0  0  0  0
  1  2  1  0  0  0  0
  2  3  1  0  0  0  0
  3  4  1  0  0  0  0
  4  5  1  0  0  0  0
  5  6  1  0  0  0  0
  6  7  1  0  0  0  0
  7  8  2  0  0  0  0
  8  9  1  0  0  0  0
  9 10  2  0  0  0  0
  9 11  1  0  0  0  0
 11 12  2  0  0  0  0
  6 12  1  0  0  0  0
  7 13  1  0  0  0  0
 13 14  1  0  0  0  0
  4 14  1  6  0  0  0
  6 15  1  1  0  0  0
  5 16  1  1  0  0  0
 16 17  1  0  0  0  0
  2 17  1  0  0  0  0
 16 18  1  1  0  0  0
  3 19  1  1  0  0  0
 19 20  1  0  0  0  0
  1 20  1  0  0  0  0
 20 21  1  6  0  0  0
 21 22  1  0  0  0  0
 22 23  1  0  0  0  0
  1 23  1  0  0  0  0
 22 24  1  6  0  0  0
 24 25  1  0  0  0  0
 25 26  1  0  0  0  0
 26 27  1  0  0  0  0
 27 28  1  0  0  0  0
 28 29  1  0  0  0  0
 24 29  1  0  0  0  0
  2 30  1  1  0  0  0
  1 31  1  1  0  0  0
 31 32  1  0  0  0  0
 32 33  1  0  0  0  0
 33 34  1  0  0  0  0
 34 35  1  0  0  0  0
 35 36  1  0  0  0  0
 35 37  1  0  0  0  0
 34 38  2  0  0  0  0
 31 39  2  0  0  0  0
M  END
>  <Name>
Ciclesonide(RPR251526)

>  <CAS>
126544-47-6

>  <Formula>
C32H44O7

>  <MolWt>
540.69 

>  <Bioactivity>
Ciclesonide(RPR251526) is a glucocorticoid used to treat obstructive airway diseases.

>  <Pathways>
Endocrinology/ Hormones

>  <Target>
Glucocorticoid Receptor agonist

>  <Receptor>
Glucocorticoid Receptor

>  <Reference>
1. Mutch E, et al. Biochem Pharmacol, 2007. 73(10): p. 1657-64.

$$$$
129453-61-8
  Mrv1561503291623562D          

 41 44  0  0  1  0            999 V2000
   -2.1434   -0.4125    0.0000 C   0  0  1  0  0  0  0  0  0  0  0  0
   -2.8579    0.0000    0.0000 C   0  0  1  0  0  0  0  0  0  0  0  0
   -3.5724   -0.4125    0.0000 C   0  0  0  0  0  0  0  0  0  0  0  0
   -3.5724   -1.2375    0.0000 C   0  0  0  0  0  0  0  0  0  0  0  0
   -4.2868   -1.6500    0.0000 C   0  0  0  0  0  0  0  0  0  0  0  0
   -5.0013   -1.2375    0.0000 C   0  0  0  0  0  0  0  0  0  0  0  0
   -5.7158   -1.6500    0.0000 O   0  0  0  0  0  0  0  0  0  0  0  0
   -5.0013   -0.4125    0.0000 C   0  0  0  0  0  0  0  0  0  0  0  0
   -4.2868    0.0000    0.0000 C   0  0  0  0  0  0  0  0  0  0  0  0
   -2.8579   -1.6500    0.0000 C   0  0  0  0  0  0  0  0  0  0  0  0
   -2.1434   -1.2375    0.0000 C   0  0  1  0  0  0  0  0  0  0  0  0
   -1.4289   -1.6500    0.0000 C   0  0  0  0  0  0  0  0  0  0  0  0
   -0.7145   -1.2375    0.0000 C   0  0  0  0  0  0  0  0  0  0  0  0
   -0.0000   -1.6500    0.0000 C   0  0  0  0  0  0  0  0  0  0  0  0
    0.7145   -1.2375    0.0000 C   0  0  0  0  0  0  0  0  0  0  0  0
    1.4289   -1.6500    0.0000 C   0  0  0  0  0  0  0  0  0  0  0  0
    2.1434   -1.2375    0.0000 C   0  0  0  0  0  0  0  0  0  0  0  0
    2.8579   -1.6500    0.0000 C   0  0  0  0  0  0  0  0  0  0  0  0
    3.5724   -1.2375    0.0000 C   0  0  0  0  0  0  0  0  0  0  0  0
    4.2868   -1.6500    0.0000 C   0  0  0  0  0  0  0  0  0  0  0  0
    5.0013   -1.2375    0.0000 S   0  0  0  0  0  0  0  0  0  0  0  0
    5.7158   -1.6500    0.0000 C   0  0  0  0  0  0  0  0  0  0  0  0
    6.4302   -1.2375    0.0000 C   0  0  0  0  0  0  0  0  0  0  0  0
    7.1447   -1.6500    0.0000 C   0  0  0  0  0  0  0  0  0  0  0  0
    7.8592   -1.2375    0.0000 C   0  0  0  0  0  0  0  0  0  0  0  0
    8.5737   -0.8250    0.0000 C   0  0  0  0  0  0  0  0  0  0  0  0
    9.2881   -0.4125    0.0000 F   0  0  0  0  0  0  0  0  0  0  0  0
    8.9862   -1.5395    0.0000 F   0  0  0  0  0  0  0  0  0  0  0  0
    8.1612   -0.1105    0.0000 F   0  0  0  0  0  0  0  0  0  0  0  0
    8.2717   -1.9520    0.0000 F   0  0  0  0  0  0  0  0  0  0  0  0
    7.4467   -0.5230    0.0000 F   0  0  0  0  0  0  0  0  0  0  0  0
    5.0013   -0.4125    0.0000 O   0  0  0  0  0  0  0  0  0  0  0  0
   -2.8579    0.8250    0.0000 C   0  0  0  0  0  0  0  0  0  0  0  0
   -2.1434    1.2375    0.0000 C   0  0  0  0  0  0  0  0  0  0  0  0
   -1.4289    0.8250    0.0000 C   0  0  1  0  0  0  0  0  0  0  0  0
   -1.4289   -0.0000    0.0000 C   0  0  1  0  0  0  0  0  0  0  0  0
   -0.6443   -0.2549    0.0000 C   0  0  0  0  0  0  0  0  0  0  0  0
   -0.1594    0.4125    0.0000 C   0  0  0  0  0  0  0  0  0  0  0  0
   -0.6443    1.0799    0.0000 C   0  0  2  0  0  0  0  0  0  0  0  0
   -0.3894    1.8646    0.0000 O   0  0  0  0  0  0  0  0  0  0  0  0
   -1.3427    1.6455    0.0000 C   0  0  0  0  0  0  0  0  0  0  0  0
  1  2  1  0  0  0  0
  2  3  1  0  0  0  0
  3  4  2  0  0  0  0
  4  5  1  0  0  0  0
  5  6  2  0  0  0  0
  6  7  1  0  0  0  0
  6  8  1  0  0  0  0
  8  9  2  0  0  0  0
  3  9  1  0  0  0  0
  4 10  1  0  0  0  0
 10 11  1  0  0  0  0
  1 11  1  0  0  0  0
 11 12  1  6  0  0  0
 12 13  1  0  0  0  0
 13 14  1  0  0  0  0
 14 15  1  0  0  0  0
 15 16  1  0  0  0  0
 16 17  1  0  0  0  0
 17 18  1  0  0  0  0
 18 19  1  0  0  0  0
 19 20  1  0  0  0  0
 20 21  1  0  0  0  0
 21 22  1  0  0  0  0
 22 23  1  0  0  0  0
 23 24  1  0  0  0  0
 24 25  1  0  0  0  0
 25 26  1  0  0  0  0
 26 27  1  0  0  0  0
 26 28  1  0  0  0  0
 26 29  1  0  0  0  0
 25 30  1  0  0  0  0
 25 31  1  0  0  0  0
 21 32  2  0  0  0  0
  2 33  1  1  0  0  0
 33 34  1  0  0  0  0
 34 35  1  0  0  0  0
 35 36  1  0  0  0  0
  1 36  1  6  0  0  0
 36 37  1  1  0  0  0
 37 38  1  0  0  0  0
 38 39  1  0  0  0  0
 35 39  1  0  0  0  0
 39 40  1  1  0  0  0
 35 41  1  1  0  0  0
M  END
>  <Name>
Fulvestrant

>  <CAS>
129453-61-8

>  <Formula>
C32H47F5O3S

>  <MolWt>
606.77 

>  <Bioactivity>
Fulvestrant is a drug treatment of hormone receptor-positive metastatic breast cancer in post-menopausal women with disease progression following anti-estrogen therapy. It is an estrogen receptor antagonist with no agonist effects, which works both by down-regulating and by degrading the estrogen receptor.


>  <Pathways>
Endocrinology/ Hormones

>  <Target>
Estrogen/Progestogen Receptor antagonist

>  <Receptor>
Estrogen/progestogen Receptor 

>  <Reference>
1. Wakeling AE, et al. Cancer Res, 1991, 51(15), 3867-3873.

$$$$
312753-06-3
  Mrv1561503291623562D          

 29 32  0  0  0  0            999 V2000
    0.1783    0.5423    0.0000 C   0  0  0  0  0  0  0  0  0  0  0  0
    1.0033    0.5423    0.0000 C   0  0  0  0  0  0  0  0  0  0  0  0
    1.4158    1.2568    0.0000 C   0  0  0  0  0  0  0  0  0  0  0  0
    1.0033    1.9713    0.0000 C   0  0  0  0  0  0  0  0  0  0  0  0
    0.1783    1.9713    0.0000 C   0  0  0  0  0  0  0  0  0  0  0  0
   -0.2342    1.2568    0.0000 C   0  0  0  0  0  0  0  0  0  0  0  0
   -0.2342    2.6857    0.0000 O   0  0  0  0  0  0  0  0  0  0  0  0
    1.4158    2.6857    0.0000 N   0  0  0  0  0  0  0  0  0  0  0  0
    2.2408    2.6857    0.0000 C   0  0  0  0  0  0  0  0  0  0  0  0
    2.6533    1.9713    0.0000 C   0  0  0  0  0  0  0  0  0  0  0  0
    2.2408    1.2568    0.0000 C   0  0  0  0  0  0  0  0  0  0  0  0
    2.6533    3.4002    0.0000 O   0  0  0  0  0  0  0  0  0  0  0  0
    1.4158   -0.1721    0.0000 C   0  0  0  0  0  0  0  0  0  0  0  0
    2.2408   -0.1721    0.0000 C   0  0  0  0  0  0  0  0  0  0  0  0
    2.6533   -0.8866    0.0000 N   0  0  0  0  0  0  0  0  0  0  0  0
    3.4783   -0.8866    0.0000 C   0  0  0  0  0  0  0  0  0  0  0  0
    3.9633   -1.5540    0.0000 C   0  0  0  0  0  0  0  0  0  0  0  0
    4.7479   -1.2991    0.0000 C   0  0  0  0  0  0  0  0  0  0  0  0
    4.7479   -0.4741    0.0000 C   0  0  0  0  0  0  0  0  0  0  0  0
    3.9633   -0.2192    0.0000 C   0  0  0  0  0  0  0  0  0  0  0  0
    5.4623   -0.0616    0.0000 C   0  0  0  0  0  0  0  0  0  0  0  0
    6.1768   -0.4741    0.0000 C   0  0  0  0  0  0  0  0  0  0  0  0
    6.1768   -1.2991    0.0000 C   0  0  0  0  0  0  0  0  0  0  0  0
    5.4623   -1.7116    0.0000 C   0  0  0  0  0  0  0  0  0  0  0  0
    6.8913   -1.7116    0.0000 C   0  0  0  0  0  0  0  0  0  0  0  0
    7.6058   -1.2991    0.0000 C   0  0  0  0  0  0  0  0  0  0  0  0
    6.8913   -0.0616    0.0000 C   0  0  0  0  0  0  0  0  0  0  0  0
    7.6058   -0.4741    0.0000 C   0  0  0  0  0  0  0  0  0  0  0  0
    1.0033   -0.8866    0.0000 O   0  0  0  0  0  0  0  0  0  0  0  0
  1  2  2  0  0  0  0
  2  3  1  0  0  0  0
  3  4  2  0  0  0  0
  4  5  1  0  0  0  0
  5  6  2  0  0  0  0
  1  6  1  0  0  0  0
  5  7  1  0  0  0  0
  4  8  1  0  0  0  0
  8  9  1  0  0  0  0
  9 10  1  0  0  0  0
 10 11  2  0  0  0  0
  3 11  1  0  0  0  0
  9 12  2  0  0  0  0
  2 13  1  0  0  0  0
 13 14  1  0  0  0  0
 14 15  1  0  0  0  0
 15 16  1  0  0  0  0
 16 17  1  0  0  0  0
 17 18  1  0  0  0  0
 18 19  2  0  0  0  0
 19 20  1  0  0  0  0
 16 20  1  0  0  0  0
 19 21  1  0  0  0  0
 21 22  2  0  0  0  0
 22 23  1  0  0  0  0
 23 24  2  0  0  0  0
 18 24  1  0  0  0  0
 23 25  1  0  0  0  0
 25 26  1  0  0  0  0
 22 27  1  0  0  0  0
 27 28  1  0  0  0  0
 13 29  1  0  0  0  0
M  END
>  <Name>
Indacaterol

>  <CAS>
312753-06-3

>  <Formula>
C24H28N2O3

>  <MolWt>
392.49 

>  <Bioactivity>
Indacaterol(Onbrez; Arcapta) is an ultra-long-acting ?-adrenoceptor agonist.

>  <Pathways>
GPCR/G Protein

>  <Target>
Adrenergic Receptor

>  <Receptor>
?-adrenoceptor

>  <Reference>
1. Battram C, et al. J Pharmacol Exp Ther, 2006. 317(2): p. 762-70.

$$$$
29110-48-3
  Mrv1561503291623562D          

 17 15  0  0  0  0            999 V2000
    0.4125    0.0000    0.0000 H   0  3  0  0  0  0  0  0  0  0  0  0
    6.3420   -0.7150    0.0000 C   0  0  0  0  0  0  0  0  0  0  0  0
    6.3420   -1.5400    0.0000 C   0  0  0  0  0  0  0  0  0  0  0  0
    5.6275   -1.9525    0.0000 C   0  0  0  0  0  0  0  0  0  0  0  0
    4.9131   -1.5400    0.0000 C   0  0  0  0  0  0  0  0  0  0  0  0
    4.1986   -1.9525    0.0000 Cl  0  0  0  0  0  0  0  0  0  0  0  0
    4.9131   -0.7150    0.0000 C   0  0  0  0  0  0  0  0  0  0  0  0
    5.6275   -0.3025    0.0000 C   0  0  0  0  0  0  0  0  0  0  0  0
    5.6275    0.5225    0.0000 Cl  0  0  0  0  0  0  0  0  0  0  0  0
    4.1986   -0.3025    0.0000 C   0  0  0  0  0  0  0  0  0  0  0  0
    4.1986    0.5225    0.0000 C   0  0  0  0  0  0  0  0  0  0  0  0
    4.9131    0.9350    0.0000 O   0  0  0  0  0  0  0  0  0  0  0  0
    3.4841    0.9350    0.0000 N   0  0  0  0  0  0  0  0  0  0  0  0
    3.4841    1.7600    0.0000 C   0  0  0  0  0  0  0  0  0  0  0  0
    2.7696    2.1725    0.0000 N   0  0  0  0  0  0  0  0  0  0  0  0
    4.1986    2.1725    0.0000 N   0  0  0  0  0  0  0  0  0  0  0  0
   -0.4125    0.0000    0.0000 Cl  0  5  0  0  0  0  0  0  0  0  0  0
  2  3  2  0  0  0  0
  3  4  1  0  0  0  0
  4  5  2  0  0  0  0
  5  6  1  0  0  0  0
  5  7  1  0  0  0  0
  7  8  2  0  0  0  0
  2  8  1  0  0  0  0
  8  9  1  0  0  0  0
  7 10  1  0  0  0  0
 10 11  1  0  0  0  0
 11 12  2  0  0  0  0
 11 13  1  0  0  0  0
 13 14  2  3  0  0  0
 14 15  1  0  0  0  0
 14 16  1  0  0  0  0
M  CHG  2   1   1  17  -1
M  END
>  <Name>
Guanfacine HCl

>  <CAS>
29110-48-3

>  <Formula>
C9H10Cl3N3O

>  <MolWt>
282.55 

>  <Bioactivity>
A centrally acting antihypertensive agent with specificity towards ?2A-adrenoceptor. 

>  <Pathways>
GPCR/G Protein

>  <Target>
Adrenergic Receptor antagonist 

>  <Receptor>
Adrenergic Receptor

>  <Reference>
1. Pillidge K, et al. Br J Pharmacol. 2014 Oct; 171(20):4785-96. 

$$$$
1104-22-9
  Mrv1561503291623562D          

 32 31  0  0  0  0            999 V2000
    0.4125    0.0000    0.0000 H   0  3  0  0  0  0  0  0  0  0  0  0
    3.5946    0.0000    0.0000 H   0  3  0  0  0  0  0  0  0  0  0  0
   -0.0510   -3.7125    0.0000 C   0  0  0  0  0  0  0  0  0  0  0  0
   -0.7655   -4.1250    0.0000 C   0  0  0  0  0  0  0  0  0  0  0  0
   -0.7655   -4.9500    0.0000 C   0  0  0  0  0  0  0  0  0  0  0  0
   -0.0510   -5.3625    0.0000 N   0  0  0  0  0  0  0  0  0  0  0  0
    0.6634   -4.9500    0.0000 C   0  0  0  0  0  0  0  0  0  0  0  0
    1.3779   -5.3625    0.0000 C   0  0  0  0  0  0  0  0  0  0  0  0
    1.3779   -6.1875    0.0000 N   0  0  0  0  0  0  0  0  0  0  0  0
    0.6634   -6.6000    0.0000 C   0  0  0  0  0  0  0  0  0  0  0  0
   -0.0510   -6.1875    0.0000 C   0  0  0  0  0  0  0  0  0  0  0  0
    2.0924   -6.6000    0.0000 C   0  0  0  0  0  0  0  0  0  0  0  0
    2.0924   -7.4250    0.0000 C   0  0  0  0  0  0  0  0  0  0  0  0
    2.8069   -7.8375    0.0000 C   0  0  0  0  0  0  0  0  0  0  0  0
    2.8069   -8.6625    0.0000 C   0  0  0  0  0  0  0  0  0  0  0  0
    2.0924   -9.0750    0.0000 C   0  0  0  0  0  0  0  0  0  0  0  0
    1.3779   -8.6625    0.0000 C   0  0  0  0  0  0  0  0  0  0  0  0
    1.3779   -7.8375    0.0000 C   0  0  0  0  0  0  0  0  0  0  0  0
    0.6634   -9.0750    0.0000 C   0  0  0  0  0  0  0  0  0  0  0  0
   -1.4800   -5.3625    0.0000 C   0  0  0  0  0  0  0  0  0  0  0  0
   -1.4800   -6.1875    0.0000 C   0  0  0  0  0  0  0  0  0  0  0  0
   -2.1944   -6.6000    0.0000 C   0  0  0  0  0  0  0  0  0  0  0  0
   -2.9089   -6.1875    0.0000 C   0  0  0  0  0  0  0  0  0  0  0  0
   -2.9089   -5.3625    0.0000 C   0  0  0  0  0  0  0  0  0  0  0  0
   -2.1944   -4.9500    0.0000 C   0  0  0  0  0  0  0  0  0  0  0  0
   -1.4800   -3.7125    0.0000 C   0  0  0  0  0  0  0  0  0  0  0  0
   -1.4800   -2.8875    0.0000 C   0  0  0  0  0  0  0  0  0  0  0  0
   -0.7655   -2.4750    0.0000 C   0  0  0  0  0  0  0  0  0  0  0  0
   -0.0510   -2.8875    0.0000 C   0  0  0  0  0  0  0  0  0  0  0  0
   -0.7655   -1.6500    0.0000 Cl  0  0  0  0  0  0  0  0  0  0  0  0
   -0.4125    0.0000    0.0000 Cl  0  5  0  0  0  0  0  0  0  0  0  0
    2.7696    0.0000    0.0000 Cl  0  5  0  0  0  0  0  0  0  0  0  0
  3  4  2  0  0  0  0
  4  5  1  0  0  0  0
  5  6  1  0  0  0  0
  6  7  1  0  0  0  0
  7  8  1  0  0  0  0
  8  9  1  0  0  0  0
  9 10  1  0  0  0  0
 10 11  1  0  0  0  0
  6 11  1  0  0  0  0
  9 12  1  0  0  0  0
 12 13  1  0  0  0  0
 13 14  2  0  0  0  0
 14 15  1  0  0  0  0
 15 16  2  0  0  0  0
 16 17  1  0  0  0  0
 17 18  2  0  0  0  0
 13 18  1  0  0  0  0
 17 19  1  0  0  0  0
  5 20  1  0  0  0  0
 20 21  2  0  0  0  0
 21 22  1  0  0  0  0
 22 23  2  0  0  0  0
 23 24  1  0  0  0  0
 24 25  2  0  0  0  0
 20 25  1  0  0  0  0
  4 26  1  0  0  0  0
 26 27  2  0  0  0  0
 27 28  1  0  0  0  0
 28 29  2  0  0  0  0
  3 29  1  0  0  0  0
 28 30  1  0  0  0  0
M  CHG  4   1   1   2   1  31  -1  32  -1
M  END
>  <Name>
Meclizine 2HCl

>  <CAS>
1104-22-9

>  <Formula>
C25H27ClN2.2HCl

>  <MolWt>
463.87 

>  <Bioactivity>
Meclizine is a histamine H1 receptor antagonist used to treat nausea and motion sickness, has anti-histamine, anti-muscarinic and anti-oxidative phosphorylation properties, also an agonist ligand for mCAR (constitutive androstane receptor) and an inverse agonist for hCAR.

>  <Pathways>
Neuroscience

>  <Target>
Histamine Receptor antagonist

>  <Receptor>
histamine H1 receptor

>  <Reference>
1. King CT, et al. J Pharmacol Exp Ther, 1965, 147, 391-398.

$$$$
850-52-2
  Mrv1561503291623562D          

 23 26  0  0  0  0            999 V2000
    2.2561   -2.6347    0.0000 C   0  0  0  0  0  0  0  0  0  0  0  0
    3.0683   -2.4895    0.0000 C   0  0  0  0  0  0  0  0  0  0  0  0
    2.8390   -1.6970    0.0000 C   0  0  0  0  0  0  0  0  0  0  0  0
    3.5218   -1.2340    0.0000 C   0  0  0  0  0  0  0  0  0  0  0  0
    4.1731   -1.7404    0.0000 C   0  0  0  0  0  0  0  0  0  0  0  0
    4.9853   -1.5952    0.0000 C   0  0  0  0  0  0  0  0  0  0  0  0
    5.2655   -0.8192    0.0000 C   0  0  0  0  0  0  0  0  0  0  0  0
    6.0777   -0.6740    0.0000 C   0  0  0  0  0  0  0  0  0  0  0  0
    6.6095   -1.3047    0.0000 C   0  0  0  0  0  0  0  0  0  0  0  0
    7.4216   -1.1595    0.0000 C   0  0  0  0  0  0  0  0  0  0  0  0
    7.9534   -1.7902    0.0000 C   0  0  0  0  0  0  0  0  0  0  0  0
    7.6731   -2.5662    0.0000 C   0  0  0  0  0  0  0  0  0  0  0  0
    6.8610   -2.7114    0.0000 C   0  0  0  0  0  0  0  0  0  0  0  0
    6.3292   -2.0807    0.0000 C   0  0  0  0  0  0  0  0  0  0  0  0
    5.5171   -2.2259    0.0000 C   0  0  0  0  0  0  0  0  0  0  0  0
    5.2368   -3.0018    0.0000 C   0  0  0  0  0  0  0  0  0  0  0  0
    4.4247   -3.1470    0.0000 C   0  0  0  0  0  0  0  0  0  0  0  0
    3.8928   -2.5163    0.0000 C   0  0  0  0  0  0  0  0  0  0  0  0
    3.5330   -3.2587    0.0000 C   0  0  0  0  0  0  0  0  0  0  0  0
    8.7655   -1.6450    0.0000 O   0  0  0  0  0  0  0  0  0  0  0  0
    3.1278   -3.3123    0.0000 O   0  0  0  0  0  0  0  0  0  0  0  0
    1.7243   -2.0040    0.0000 C   0  0  0  0  0  0  0  0  0  0  0  0
    0.9122   -2.1492    0.0000 C   0  0  0  0  0  0  0  0  0  0  0  0
  1  2  1  0  0  0  0
  2  3  1  0  0  0  0
  3  4  1  0  0  0  0
  4  5  1  0  0  0  0
  5  6  1  0  0  0  0
  6  7  1  0  0  0  0
  7  8  1  0  0  0  0
  8  9  1  0  0  0  0
  9 10  2  0  0  0  0
 10 11  1  0  0  0  0
 11 12  1  0  0  0  0
 12 13  1  0  0  0  0
 13 14  1  0  0  0  0
  9 14  1  0  0  0  0
 14 15  2  0  0  0  0
  6 15  1  0  0  0  0
 15 16  1  0  0  0  0
 16 17  2  0  0  0  0
 17 18  1  0  0  0  0
  2 18  1  0  0  0  0
  5 18  1  0  0  0  0
 18 19  1  0  0  0  0
 11 20  2  0  0  0  0
  2 21  1  0  0  0  0
  1 22  1  0  0  0  0
 22 23  2  0  0  0  0
M  END
>  <Name>
Altrenogest

>  <CAS>
850-52-2

>  <Formula>
C21H26O2

>  <MolWt>
310.43 

>  <Bioactivity>
Altrenogest is a progestogen structurally related to veterinary steroid trenbolone.

>  <Pathways>
Endocrinology/ Hormones

>  <Target>
Estrogen/Progestogen Receptor agonist

>  <Receptor>
Estrogen/progestogen Receptor

>  <Reference>
1. Squires EL, et al. J Anim Sci, 1983, 56(4), 901-910.

$$$$
T0097L
  Mrv1561503291623562D          

 31 34  0  0  0  0            999 V2000
    7.0714    4.8229    0.0000 C   0  0  0  0  0  0  0  0  0  0  0  0
    6.3569    4.4104    0.0000 C   0  0  0  0  0  0  0  0  0  0  0  0
    6.3569    3.5854    0.0000 C   0  0  0  0  0  0  0  0  0  0  0  0
    5.6424    3.1729    0.0000 C   0  0  0  0  0  0  0  0  0  0  0  0
    4.9279    3.5854    0.0000 C   0  0  0  0  0  0  0  0  0  0  0  0
    4.9279    4.4104    0.0000 C   0  0  0  0  0  0  0  0  0  0  0  0
    5.6424    4.8229    0.0000 C   0  0  0  0  0  0  0  0  0  0  0  0
    4.2135    3.1729    0.0000 N   0  0  0  0  0  0  0  0  0  0  0  0
    4.2135    2.3479    0.0000 C   0  0  0  0  0  0  0  0  0  0  0  0
    4.9279    1.9354    0.0000 N   0  0  0  0  0  0  0  0  0  0  0  0
    4.9279    1.1104    0.0000 C   0  0  0  0  0  0  0  0  0  0  0  0
    4.2135    0.6979    0.0000 C   0  0  0  0  0  0  0  0  0  0  0  0
    3.4990    1.1104    0.0000 C   0  0  0  0  0  0  0  0  0  0  0  0
    3.4990    1.9354    0.0000 N   0  0  0  0  0  0  0  0  0  0  0  0
    2.7845    0.6979    0.0000 N   0  0  0  0  0  0  0  0  0  0  0  0
    2.7845   -0.1271    0.0000 C   0  0  0  0  0  0  0  0  0  0  0  0
    2.0701    1.1104    0.0000 C   0  0  0  0  0  0  0  0  0  0  0  0
    1.3556    0.6979    0.0000 C   0  0  0  0  0  0  0  0  0  0  0  0
    0.6411    1.1104    0.0000 C   0  0  0  0  0  0  0  0  0  0  0  0
   -0.1435    0.8555    0.0000 N   0  0  0  0  0  0  0  0  0  0  0  0
   -0.6284    1.5229    0.0000 N   0  0  0  0  0  0  0  0  0  0  0  0
   -0.1435    2.1904    0.0000 C   0  0  0  0  0  0  0  0  0  0  0  0
    0.6411    1.9354    0.0000 C   0  0  0  0  0  0  0  0  0  0  0  0
    1.3556    2.3479    0.0000 C   0  0  0  0  0  0  0  0  0  0  0  0
    2.0701    1.9354    0.0000 C   0  0  0  0  0  0  0  0  0  0  0  0
   -0.3984    2.9750    0.0000 C   0  0  0  0  0  0  0  0  0  0  0  0
   -1.4534    1.5229    0.0000 C   0  0  0  0  0  0  0  0  0  0  0  0
    7.0714    3.1729    0.0000 S   0  0  0  0  0  0  0  0  0  0  0  0
    7.7858    2.7604    0.0000 O   0  0  0  0  0  0  0  0  0  0  0  0
    6.6589    2.4585    0.0000 O   0  0  0  0  0  0  0  0  0  0  0  0
    7.4839    3.8874    0.0000 N   0  0  0  0  0  0  0  0  0  0  0  0
  1  2  1  0  0  0  0
  2  3  2  0  0  0  0
  3  4  1  0  0  0  0
  4  5  2  0  0  0  0
  5  6  1  0  0  0  0
  6  7  2  0  0  0  0
  2  7  1  0  0  0  0
  5  8  1  0  0  0  0
  8  9  1  0  0  0  0
  9 10  2  0  0  0  0
 10 11  1  0  0  0  0
 11 12  2  0  0  0  0
 12 13  1  0  0  0  0
 13 14  2  0  0  0  0
  9 14  1  0  0  0  0
 13 15  1  0  0  0  0
 15 16  1  0  0  0  0
 15 17  1  0  0  0  0
 17 18  2  0  0  0  0
 18 19  1  0  0  0  0
 19 20  2  0  0  0  0
 20 21  1  0  0  0  0
 21 22  1  0  0  0  0
 22 23  2  0  0  0  0
 19 23  1  0  0  0  0
 23 24  1  0  0  0  0
 24 25  2  0  0  0  0
 17 25  1  0  0  0  0
 22 26  1  0  0  0  0
 21 27  1  0  0  0  0
  3 28  1  0  0  0  0
 28 29  2  0  0  0  0
 28 30  2  0  0  0  0
 28 31  1  0  0  0  0
M  END
>  <Name>
Pazopanib

>  <CAS>
444731-52-6

>  <Formula>
C21H23N7O2S

>  <MolWt>
437.52 

>  <Bioactivity>
Pazopanib is a small molecule inhibitor of multiple protein tyrosine kinases with potential antineoplastic activity. Pazopanib selectively inhibits vascular endothelial growth factor receptors (VEGFR)-1, -2 and -3, c-kit and platelet derived growth factor receptor (PDGF-R), which may result in inhibition of angiogenesis in tumors in which these receptors are upregulated.

>  <Pathways>
Tyrosine Kinase/Adaptors

>  <Target>
VEGFR inhibitor

>  <Receptor>
VEGFR1,2,3

>  <Reference>
1. Harris PA, et al. J Med Chem. 2008, 51(15), 4632-4640.

$$$$
60200-06-8
  Mrv1561503291623562D          

 20 20  0  0  0  0            999 V2000
    1.4289    0.8250    0.0000 C   0  0  0  0  0  0  0  0  0  0  0  0
    1.4289    0.0000    0.0000 C   0  0  0  0  0  0  0  0  0  0  0  0
    2.1434   -0.4125    0.0000 N   0  0  0  0  0  0  0  0  0  0  0  0
    0.7145   -0.4125    0.0000 C   0  0  0  0  0  0  0  0  0  0  0  0
   -0.0000    0.0000    0.0000 C   0  0  0  0  0  0  0  0  0  0  0  0
   -0.0000    0.8250    0.0000 C   0  0  0  0  0  0  0  0  0  0  0  0
    0.7145    1.2375    0.0000 C   0  0  0  0  0  0  0  0  0  0  0  0
    0.7145    2.0625    0.0000 C   0  0  0  0  0  0  0  0  0  0  0  0
    1.4289    2.4750    0.0000 C   0  0  0  0  0  0  0  0  0  0  0  0
    1.4289    3.3000    0.0000 Cl  0  0  0  0  0  0  0  0  0  0  0  0
    2.1434    2.0625    0.0000 Cl  0  0  0  0  0  0  0  0  0  0  0  0
    0.0000    2.4750    0.0000 Cl  0  0  0  0  0  0  0  0  0  0  0  0
   -0.7145    1.2375    0.0000 S   0  0  0  0  0  0  0  0  0  0  0  0
   -1.4289    1.6500    0.0000 N   0  0  0  0  0  0  0  0  0  0  0  0
   -0.3020    1.9520    0.0000 O   0  0  0  0  0  0  0  0  0  0  0  0
   -1.1270    0.5230    0.0000 O   0  0  0  0  0  0  0  0  0  0  0  0
    0.7145   -1.2375    0.0000 S   0  0  0  0  0  0  0  0  0  0  0  0
    0.7145   -2.0625    0.0000 N   0  0  0  0  0  0  0  0  0  0  0  0
   -0.1105   -1.2375    0.0000 O   0  0  0  0  0  0  0  0  0  0  0  0
    1.5395   -1.2375    0.0000 O   0  0  0  0  0  0  0  0  0  0  0  0
  1  2  2  0  0  0  0
  2  3  1  0  0  0  0
  2  4  1  0  0  0  0
  4  5  2  0  0  0  0
  5  6  1  0  0  0  0
  6  7  2  0  0  0  0
  1  7  1  0  0  0  0
  7  8  1  0  0  0  0
  8  9  2  0  0  0  0
  9 10  1  0  0  0  0
  9 11  1  0  0  0  0
  8 12  1  0  0  0  0
  6 13  1  0  0  0  0
 13 14  1  0  0  0  0
 13 15  2  0  0  0  0
 13 16  2  0  0  0  0
  4 17  1  0  0  0  0
 17 18  1  0  0  0  0
 17 19  2  0  0  0  0
 17 20  2  0  0  0  0
M  END
>  <Name>
Clorsulon

>  <CAS>
60200-06-8

>  <Formula>
C8H8Cl3N3O4S2

>  <MolWt>
380.66 

>  <Bioactivity>
Clorsulon is used in the treatment of Fasciola hepatica infections in calves and sheep.

>  <Pathways>
Others

>  <Target>
Others

>  <Receptor>
Others

>  <Reference>
1. Mrozik H, et al. J Med Chem, 1977, 20(9), 1225-1227.

$$$$
T1168
  Mrv1561503291623562D          

 30 34  0  0  1  0            999 V2000
    4.8154    0.6943    0.0000 C   0  0  2  0  0  0  0  0  0  0  0  0
    5.5275    1.1108    0.0000 O   0  0  0  0  0  0  0  0  0  0  0  0
    6.1437    0.5623    0.0000 C   0  0  0  0  0  0  0  0  0  0  0  0
    5.8124   -0.1933    0.0000 O   0  0  0  0  0  0  0  0  0  0  0  0
    4.9914   -0.1117    0.0000 C   0  0  2  0  0  0  0  0  0  0  0  0
    4.2793   -0.5282    0.0000 C   0  0  0  0  0  0  0  0  0  0  0  0
    3.6631    0.0204    0.0000 C   0  0  2  0  0  0  0  0  0  0  0  0
    3.9944    0.7759    0.0000 C   0  0  0  0  0  0  0  0  0  0  0  0
    3.5057    1.4406    0.0000 C   0  0  0  0  0  0  0  0  0  0  0  0
    2.6857    1.3498    0.0000 C   0  0  0  0  0  0  0  0  0  0  0  0
    2.1971    2.0145    0.0000 O   0  0  0  0  0  0  0  0  0  0  0  0
    2.3544    0.5942    0.0000 C   0  0  1  0  0  0  0  0  0  0  0  0
    2.8431   -0.0705    0.0000 C   0  0  0  0  0  0  0  0  0  0  0  0
    2.5118   -0.8260    0.0000 C   0  0  0  0  0  0  0  0  0  0  0  0
    1.6918   -0.9169    0.0000 C   0  0  0  0  0  0  0  0  0  0  0  0
    1.2031   -0.2522    0.0000 C   0  0  0  0  0  0  0  0  0  0  0  0
    0.3832   -0.3431    0.0000 C   0  0  0  0  0  0  0  0  0  0  0  0
   -0.1055    0.3216    0.0000 C   0  0  0  0  0  0  0  0  0  0  0  0
   -0.9255    0.2308    0.0000 O   0  0  0  0  0  0  0  0  0  0  0  0
    0.2258    1.0772    0.0000 C   0  0  0  0  0  0  0  0  0  0  0  0
    1.0458    1.1681    0.0000 C   0  0  0  0  0  0  0  0  0  0  0  0
    1.5345    0.5034    0.0000 C   0  0  0  0  0  0  0  0  0  0  0  0
    1.8658    1.2589    0.0000 C   0  0  0  0  0  0  0  0  0  0  0  0
    4.1614    1.5839    0.0000 C   0  0  0  0  0  0  0  0  0  0  0  0
    6.7594    1.1113    0.0000 C   0  0  0  0  0  0  0  0  0  0  0  0
    6.9323    0.3200    0.0000 C   0  0  0  0  0  0  0  0  0  0  0  0
    4.6393    1.5003    0.0000 C   0  0  0  0  0  0  0  0  0  0  0  0
    3.9691    1.9815    0.0000 O   0  0  0  0  0  0  0  0  0  0  0  0
    5.2493    2.0558    0.0000 C   0  0  0  0  0  0  0  0  0  0  0  0
    6.0353    1.8053    0.0000 O   0  0  0  0  0  0  0  0  0  0  0  0
  1  2  1  0  0  0  0
  2  3  1  0  0  0  0
  3  4  1  0  0  0  0
  5  4  1  6  0  0  0
  1  5  1  0  0  0  0
  5  6  1  0  0  0  0
  7  6  1  1  0  0  0
  7  8  1  0  0  0  0
  1  8  1  0  0  0  0
  8  9  1  0  0  0  0
  9 10  1  0  0  0  0
 10 11  1  0  0  0  0
 10 12  1  0  0  0  0
 12 13  1  0  0  0  0
  7 13  1  0  0  0  0
 13 14  1  0  0  0  0
 14 15  1  0  0  0  0
 15 16  1  0  0  0  0
 16 17  2  0  0  0  0
 17 18  1  0  0  0  0
 18 19  2  0  0  0  0
 18 20  1  0  0  0  0
 20 21  2  0  0  0  0
 21 22  1  0  0  0  0
 12 22  1  1  0  0  0
 16 22  1  0  0  0  0
 22 23  1  0  0  0  0
  8 24  1  0  0  0  0
  3 25  1  0  0  0  0
  3 26  1  0  0  0  0
  1 27  1  1  0  0  0
 27 28  2  0  0  0  0
 27 29  1  0  0  0  0
 29 30  1  0  0  0  0
M  END
>  <Name>
Desonide

>  <CAS>
638-94-8

>  <Formula>
C24H32O6

>  <MolWt>
416.51 

>  <Bioactivity>
Desonide is a low potency topical corticosteroid. It is primarily used to treat atopic dermatitis (eczema), seborrheic dermatitis, psoriasis and contact dermatitis in both adults and children and has a fairly good safety profile. 

>  <Pathways>
Endocrinology/ Hormones

>  <Target>
Glucocorticoid Receptor agonist

>  <Receptor>
Glucocorticoid Receptor

>  <Reference>
1. Russell GM, et al. J Neurosci. 2010 Apr 28;30(17):6106-15. 

$$$$
68-26-8
  Mrv1561503291623562D          

 21 21  0  0  0  0            999 V2000
    5.0013    6.1875    0.0000 C   0  0  0  0  0  0  0  0  0  0  0  0
    4.2868    5.7750    0.0000 C   0  0  0  0  0  0  0  0  0  0  0  0
    4.2868    4.9500    0.0000 C   0  0  0  0  0  0  0  0  0  0  0  0
    3.5724    4.5375    0.0000 C   0  0  0  0  0  0  0  0  0  0  0  0
    3.5724    3.7125    0.0000 C   0  0  0  0  0  0  0  0  0  0  0  0
    2.8579    3.3000    0.0000 C   0  0  0  0  0  0  0  0  0  0  0  0
    2.8579    2.4750    0.0000 C   0  0  0  0  0  0  0  0  0  0  0  0
    2.1434    2.0625    0.0000 C   0  0  0  0  0  0  0  0  0  0  0  0
    2.1434    1.2375    0.0000 C   0  0  0  0  0  0  0  0  0  0  0  0
    1.4289    0.8250    0.0000 C   0  0  0  0  0  0  0  0  0  0  0  0
    1.4289    0.0000    0.0000 C   0  0  0  0  0  0  0  0  0  0  0  0
    0.7145   -0.4125    0.0000 C   0  0  0  0  0  0  0  0  0  0  0  0
   -0.0000    0.0000    0.0000 C   0  0  0  0  0  0  0  0  0  0  0  0
   -0.0000    0.8250    0.0000 C   0  0  0  0  0  0  0  0  0  0  0  0
    0.7145    1.2375    0.0000 C   0  0  0  0  0  0  0  0  0  0  0  0
    0.3272    1.9659    0.0000 C   0  0  0  0  0  0  0  0  0  0  0  0
    1.1018    1.9659    0.0000 C   0  0  0  0  0  0  0  0  0  0  0  0
    2.1434   -0.4125    0.0000 C   0  0  0  0  0  0  0  0  0  0  0  0
    3.5724    2.0625    0.0000 C   0  0  0  0  0  0  0  0  0  0  0  0
    5.0013    4.5375    0.0000 C   0  0  0  0  0  0  0  0  0  0  0  0
    5.0013    7.0125    0.0000 O   0  0  0  0  0  0  0  0  0  0  0  0
  1  2  1  0  0  0  0
  2  3  2  0  0  0  0
  3  4  1  0  0  0  0
  4  5  2  0  0  0  0
  5  6  1  0  0  0  0
  6  7  2  0  0  0  0
  7  8  1  0  0  0  0
  8  9  2  0  0  0  0
  9 10  1  0  0  0  0
 10 11  2  0  0  0  0
 11 12  1  0  0  0  0
 12 13  1  0  0  0  0
 13 14  1  0  0  0  0
 14 15  1  0  0  0  0
 10 15  1  0  0  0  0
 15 16  1  0  0  0  0
 15 17  1  0  0  0  0
 11 18  1  0  0  0  0
  7 19  1  0  0  0  0
  3 20  1  0  0  0  0
  1 21  1  0  0  0  0
M  END
>  <Name>
Vitamin A

>  <CAS>
68-26-8

>  <Formula>
C20H30O

>  <MolWt>
286.45 

>  <Bioactivity>
Retinol and derivatives of retinol that play an essential role in metabolic functioning of the retina, the growth of and differentiation of epithelial tissue, the growth of bone, reproduction, and the immune response. Dietary vitamin A is derived from a variety of CAROTENOIDS found in plants. It is enriched in the liver, egg yolks, and the fat component of dairy products. 

>  <Pathways>
Vitamin

>  <Target>
VA

>  <Receptor>
Retinol-binding protein

>  <Reference>
1. Muniz A, et al. Biochemistry. 2006 Oct 10;45(40):12265-73.

$$$$
T0198
  Mrv1561503291623562D          

 35 37  0  0  1  0            999 V2000
    1.6905   -0.1510    0.0000 C   0  0  0  0  0  0  0  0  0  0  0  0
    2.4049    0.2615    0.0000 S   0  0  0  0  0  0  0  0  0  0  0  0
    3.1194   -0.1510    0.0000 C   0  0  0  0  0  0  0  0  0  0  0  0
    3.1194   -0.9760    0.0000 C   0  0  0  0  0  0  0  0  0  0  0  0
    2.4049   -1.3885    0.0000 C   0  0  0  0  0  0  0  0  0  0  0  0
    1.6905   -0.9760    0.0000 N   0  0  0  0  0  0  0  0  0  0  0  0
    0.8655   -0.9760    0.0000 C   0  0  0  0  0  0  0  0  0  0  0  0
    0.2821   -1.5593    0.0000 O   0  0  0  0  0  0  0  0  0  0  0  0
    0.8655   -0.1510    0.0000 C   0  0  0  0  0  0  0  0  0  0  0  0
    0.2821    0.4324    0.0000 N   0  0  0  0  0  0  0  0  0  0  0  0
   -0.5148    0.2189    0.0000 C   0  0  0  0  0  0  0  0  0  0  0  0
   -0.7283   -0.5780    0.0000 O   0  0  0  0  0  0  0  0  0  0  0  0
   -1.0982    0.8022    0.0000 C   0  0  0  0  0  0  0  0  0  0  0  0
   -0.8846    1.5991    0.0000 N   0  0  0  0  0  0  0  0  0  0  0  0
   -0.0877    1.8126    0.0000 O   0  0  0  0  0  0  0  0  0  0  0  0
    0.1258    2.6095    0.0000 C   0  0  0  0  0  0  0  0  0  0  0  0
   -1.8950    0.5887    0.0000 C   0  0  0  0  0  0  0  0  0  0  0  0
   -2.1907   -0.1815    0.0000 C   0  0  0  0  0  0  0  0  0  0  0  0
   -3.0146   -0.1383    0.0000 S   0  0  0  0  0  0  0  0  0  0  0  0
   -3.2281    0.6586    0.0000 C   0  0  0  0  0  0  0  0  0  0  0  0
   -2.5362    1.1079    0.0000 N   0  0  0  0  0  0  0  0  0  0  0  0
   -3.9983    0.9542    0.0000 N   0  0  0  0  0  0  0  0  0  0  0  0
    2.4049   -2.2135    0.0000 C   0  0  0  0  0  0  0  0  0  0  0  0
    1.6905   -2.6260    0.0000 O   0  5  0  0  0  0  0  0  0  0  0  0
    3.1194   -2.6260    0.0000 O   0  0  0  0  0  0  0  0  0  0  0  0
    3.8339   -1.3885    0.0000 C   0  0  0  0  0  0  0  0  0  0  0  0
    3.8339   -2.2135    0.0000 S   0  0  0  0  0  0  0  0  0  0  0  0
    4.5483   -2.6260    0.0000 C   0  0  0  0  0  0  0  0  0  0  0  0
    5.2628   -2.2135    0.0000 O   0  0  0  0  0  0  0  0  0  0  0  0
    4.5483   -3.4510    0.0000 C   0  0  0  0  0  0  0  0  0  0  0  0
    5.2158   -3.9359    0.0000 C   0  0  0  0  0  0  0  0  0  0  0  0
    4.9608   -4.7205    0.0000 C   0  0  0  0  0  0  0  0  0  0  0  0
    4.1358   -4.7205    0.0000 C   0  0  0  0  0  0  0  0  0  0  0  0
    3.8809   -3.9359    0.0000 O   0  0  0  0  0  0  0  0  0  0  0  0
    0.9760   -3.0385    0.0000 Na  0  3  0  0  0  0  0  0  0  0  0  0
  1  2  1  0  0  0  0
  2  3  1  0  0  0  0
  3  4  1  0  0  0  0
  4  5  2  0  0  0  0
  5  6  1  0  0  0  0
  1  6  1  0  0  0  0
  6  7  1  0  0  0  0
  7  8  2  0  0  0  0
  7  9  1  0  0  0  0
  1  9  1  0  0  0  0
  9 10  1  0  0  0  0
 10 11  1  0  0  0  0
 11 12  2  0  0  0  0
 11 13  1  0  0  0  0
 13 14  2  0  0  0  0
 14 15  1  0  0  0  0
 15 16  1  0  0  0  0
 13 17  1  0  0  0  0
 17 18  2  0  0  0  0
 18 19  1  0  0  0  0
 19 20  1  0  0  0  0
 20 21  2  0  0  0  0
 17 21  1  0  0  0  0
 20 22  1  0  0  0  0
  5 23  1  0  0  0  0
 23 24  1  0  0  0  0
 23 25  2  0  0  0  0
  4 26  1  0  0  0  0
 26 27  1  0  0  0  0
 27 28  1  0  0  0  0
 28 29  2  0  0  0  0
 28 30  1  0  0  0  0
 30 31  2  0  0  0  0
 31 32  1  0  0  0  0
 32 33  2  0  0  0  0
 33 34  1  0  0  0  0
 30 34  1  0  0  0  0
M  CHG  2  24  -1  35   1
M  END
>  <Name>
Sodium ceftiofur

>  <CAS>
104010-37-9

>  <Formula>
C19H16N5NaO7S3

>  <MolWt>
545.54 

>  <Bioactivity>
Ceftiofur is a broad spectrum cephalosporin.

>  <Pathways>
Microbiology & Virology

>  <Target>
Antibiotic

>  <Receptor>
Others

>  <Reference>
1. Yancey RJ Jr, et al. Am J Vet Res. 1987 Jul; 48(7): 1050-3.

$$$$
129-16-8
  Mrv1561503291623562D          

 31 33  0  0  0  0            999 V2000
    3.7327   -0.3722    0.0000 C   0  0  0  0  0  0  0  0  0  0  0  0
    3.1805    0.2407    0.0000 C   0  0  0  0  0  0  0  0  0  0  0  0
    2.3555    0.2405    0.0000 C   0  0  0  0  0  0  0  0  0  0  0  0
    2.1003    1.0250    0.0000 O   0  0  0  0  0  0  0  0  0  0  0  0
    2.7676    1.5102    0.0000 C   0  0  0  0  0  0  0  0  0  0  0  0
    2.7674    2.3352    0.0000 O   0  0  0  0  0  0  0  0  0  0  0  0
    3.4352    1.0254    0.0000 C   0  0  0  0  0  0  0  0  0  0  0  0
    4.2421    1.1972    0.0000 C   0  0  0  0  0  0  0  0  0  0  0  0
    4.7943    0.5843    0.0000 C   0  0  0  0  0  0  0  0  0  0  0  0
    4.5396   -0.2004    0.0000 C   0  0  0  0  0  0  0  0  0  0  0  0
    2.6913   -0.5131    0.0000 C   0  0  0  0  0  0  0  0  0  0  0  0
    3.5118   -0.5991    0.0000 C   0  0  0  0  0  0  0  0  0  0  0  0
    3.8475   -1.3527    0.0000 C   0  0  0  0  0  0  0  0  0  0  0  0
    3.3628   -2.0202    0.0000 C   0  0  0  0  0  0  0  0  0  0  0  0
    3.6986   -2.7738    0.0000 O   0  5  0  0  0  0  0  0  0  0  0  0
    2.5423   -1.9342    0.0000 C   0  0  0  0  0  0  0  0  0  0  0  0
    2.2065   -1.1807    0.0000 C   0  0  0  0  0  0  0  0  0  0  0  0
    1.3860   -1.0947    0.0000 O   0  0  0  0  0  0  0  0  0  0  0  0
    1.0502   -0.3411    0.0000 C   0  0  0  0  0  0  0  0  0  0  0  0
    0.2297   -0.2551    0.0000 C   0  0  0  0  0  0  0  0  0  0  0  0
   -0.1060    0.4985    0.0000 C   0  0  0  0  0  0  0  0  0  0  0  0
    0.3787    1.1661    0.0000 C   0  0  0  0  0  0  0  0  0  0  0  0
    0.0429    1.9197    0.0000 Br  0  0  0  0  0  0  0  0  0  0  0  0
    1.1992    1.0801    0.0000 C   0  0  0  0  0  0  0  0  0  0  0  0
    1.5350    0.3265    0.0000 C   0  0  0  0  0  0  0  0  0  0  0  0
   -0.9265    0.5845    0.0000 O   0  5  0  0  0  0  0  0  0  0  0  0
    2.0576   -2.6018    0.0000 Hg  0  0  0  0  0  0  0  0  0  0  0  0
    1.4113   -3.4919    0.0000 O   0  0  0  0  0  0  0  0  0  0  0  0
    4.6680   -1.4387    0.0000 Br  0  0  0  0  0  0  0  0  0  0  0  0
    4.0344   -3.5274    0.0000 Na  0  3  0  0  0  0  0  0  0  0  0  0
   -1.7470    0.6705    0.0000 Na  0  3  0  0  0  0  0  0  0  0  0  0
  1  2  2  0  0  0  0
  2  3  1  0  0  0  0
  3  4  1  0  0  0  0
  4  5  1  0  0  0  0
  5  6  2  0  0  0  0
  5  7  1  0  0  0  0
  2  7  1  0  0  0  0
  7  8  2  0  0  0  0
  8  9  1  0  0  0  0
  9 10  2  0  0  0  0
  1 10  1  0  0  0  0
  3 11  1  0  0  0  0
 11 12  2  0  0  0  0
 12 13  1  0  0  0  0
 13 14  2  0  0  0  0
 14 15  1  0  0  0  0
 14 16  1  0  0  0  0
 16 17  2  0  0  0  0
 11 17  1  0  0  0  0
 17 18  1  0  0  0  0
 18 19  1  0  0  0  0
 19 20  2  0  0  0  0
 20 21  1  0  0  0  0
 21 22  2  0  0  0  0
 22 23  1  0  0  0  0
 22 24  1  0  0  0  0
 24 25  2  0  0  0  0
  3 25  1  0  0  0  0
 19 25  1  0  0  0  0
 21 26  1  0  0  0  0
 16 27  1  0  0  0  0
 28 27  8  0  0  0  0
 13 29  1  0  0  0  0
M  CHG  4  15  -1  26  -1  30   1  31   1
M  STY  1   1 DAT
M  SAL   1  2  28  27
M  SDT   1 MRV_COORDINATE_BOND_TYPE                              
M  SDD   1     0.0000    0.0000    DR    ALL  0       0  
M  SED   1 32
M  END
>  <Name>
Merbromin

>  <CAS>
129-16-8

>  <Formula>
C20H8Br2HgNa2O6

>  <MolWt>
750.65 

>  <Bioactivity>
Merbromin is a topical antiseptic used for minor cuts and scrapes. Merbromin is an organomercuric disodium salt compound and a fluorescein.

>  <Pathways>
Others

>  <Target>
Others

>  <Receptor>
Others

>  <Reference>
1. Banerjee D, et al. Spectrochim Acta A Mol Biomol Spectrosc. 2008 Oct;70(5):1109-13.

$$$$
74150-27-9
  Mrv1561503291623562D          

 25 28  0  0  0  0            999 V2000
    2.0701    1.1104    0.0000 C   0  0  0  0  0  0  0  0  0  0  0  0
    1.3556    0.6979    0.0000 C   0  0  0  0  0  0  0  0  0  0  0  0
    0.6411    1.1104    0.0000 C   0  0  0  0  0  0  0  0  0  0  0  0
    0.6411    1.9354    0.0000 C   0  0  0  0  0  0  0  0  0  0  0  0
   -0.1435    2.1904    0.0000 N   0  0  0  0  0  0  0  0  0  0  0  0
   -0.6284    1.5229    0.0000 C   0  0  0  0  0  0  0  0  0  0  0  0
   -0.1435    0.8555    0.0000 N   0  0  0  0  0  0  0  0  0  0  0  0
   -1.4534    1.5229    0.0000 C   0  0  0  0  0  0  0  0  0  0  0  0
   -1.8659    0.8085    0.0000 C   0  0  0  0  0  0  0  0  0  0  0  0
   -2.6909    0.8085    0.0000 C   0  0  0  0  0  0  0  0  0  0  0  0
   -3.1034    1.5229    0.0000 C   0  0  0  0  0  0  0  0  0  0  0  0
   -2.6909    2.2374    0.0000 C   0  0  0  0  0  0  0  0  0  0  0  0
   -1.8659    2.2374    0.0000 C   0  0  0  0  0  0  0  0  0  0  0  0
   -3.9284    1.5229    0.0000 O   0  0  0  0  0  0  0  0  0  0  0  0
   -4.3409    2.2374    0.0000 C   0  0  0  0  0  0  0  0  0  0  0  0
    1.3556    2.3479    0.0000 C   0  0  0  0  0  0  0  0  0  0  0  0
    2.0701    1.9354    0.0000 C   0  0  0  0  0  0  0  0  0  0  0  0
    2.7845    2.3479    0.0000 C   0  0  0  0  0  0  0  0  0  0  0  0
    2.7845    3.1729    0.0000 N   0  0  0  0  0  0  0  0  0  0  0  0
    3.4990    3.5854    0.0000 N   0  0  0  0  0  0  0  0  0  0  0  0
    4.2135    3.1729    0.0000 C   0  0  0  0  0  0  0  0  0  0  0  0
    4.2135    2.3479    0.0000 C   0  0  0  0  0  0  0  0  0  0  0  0
    3.4990    1.9354    0.0000 C   0  0  0  0  0  0  0  0  0  0  0  0
    3.4990    1.1104    0.0000 C   0  0  0  0  0  0  0  0  0  0  0  0
    4.9279    3.5854    0.0000 O   0  0  0  0  0  0  0  0  0  0  0  0
  1  2  2  0  0  0  0
  2  3  1  0  0  0  0
  3  4  2  0  0  0  0
  4  5  1  0  0  0  0
  5  6  1  0  0  0  0
  6  7  2  0  0  0  0
  3  7  1  0  0  0  0
  6  8  1  0  0  0  0
  8  9  2  0  0  0  0
  9 10  1  0  0  0  0
 10 11  2  0  0  0  0
 11 12  1  0  0  0  0
 12 13  2  0  0  0  0
  8 13  1  0  0  0  0
 11 14  1  0  0  0  0
 14 15  1  0  0  0  0
  4 16  1  0  0  0  0
 16 17  2  0  0  0  0
  1 17  1  0  0  0  0
 17 18  1  0  0  0  0
 18 19  2  0  0  0  0
 19 20  1  0  0  0  0
 20 21  1  0  0  0  0
 21 22  1  0  0  0  0
 22 23  1  0  0  0  0
 18 23  1  0  0  0  0
 23 24  1  0  0  0  0
 21 25  2  0  0  0  0
M  END
>  <Name>
Pimobendan

>  <CAS>
74150-27-9

>  <Formula>
C19H18N4O2

>  <MolWt>
334.37 

>  <Bioactivity>
Pimobendan is a selective inhibitor of PDE3 with IC50 of 0.32 ?M.

>  <Pathways>
Metabolism

>  <Target>
PDE inhibitor

>  <Receptor>
PDE3

>  <Reference>
1. Beier N, et al. J Cardiovasc Pharmacol, 1991, 18(1), 17-27.

$$$$
T0167
  Mrv1561503291623562D          

 26 30  0  0  1  0            999 V2000
    1.2003    1.1190    0.0000 C   0  0  2  0  0  0  0  0  0  0  0  0
    0.3767    1.0719    0.0000 C   0  0  0  0  0  0  0  0  0  0  0  0
   -0.0760    1.7616    0.0000 C   0  0  0  0  0  0  0  0  0  0  0  0
   -0.8718    1.5443    0.0000 C   0  0  0  0  0  0  0  0  0  0  0  0
   -0.9110    0.7202    0.0000 C   0  0  0  0  0  0  0  0  0  0  0  0
    0.0057    0.3350    0.0000 N   0  0  0  0  0  0  0  0  0  0  0  0
    0.4583   -0.3547    0.0000 C   0  0  0  0  0  0  0  0  0  0  0  0
    1.2820   -0.3076    0.0000 C   0  0  0  0  0  0  0  0  0  0  0  0
    1.6530    0.4293    0.0000 C   0  0  2  0  0  0  0  0  0  0  0  0
    2.4766    0.4764    0.0000 C   0  0  0  0  0  0  0  0  0  0  0  0
    2.8476    1.2133    0.0000 C   0  0  0  0  0  0  0  0  0  0  0  0
    2.3950    1.9031    0.0000 C   0  0  0  0  0  0  0  0  0  0  0  0
    1.5713    1.8559    0.0000 N   0  0  0  0  0  0  0  0  0  0  0  0
    1.1187    2.5456    0.0000 C   0  0  0  0  0  0  0  0  0  0  0  0
    0.2950    2.4985    0.0000 C   0  0  0  0  0  0  0  0  0  0  0  0
    2.1056   -0.2604    0.0000 C   0  0  0  0  0  0  0  0  0  0  0  0
    2.9293   -0.2133    0.0000 C   0  0  0  0  0  0  0  0  0  0  0  0
    0.0873   -1.0916    0.0000 C   0  0  0  0  0  0  0  0  0  0  0  0
    0.5400   -1.7813    0.0000 O   0  0  0  0  0  0  0  0  0  0  0  0
    0.1690   -2.5182    0.0000 C   0  0  0  0  0  0  0  0  0  0  0  0
    0.6216   -3.2079    0.0000 C   0  0  0  0  0  0  0  0  0  0  0  0
   -0.7363   -1.1387    0.0000 O   0  0  0  0  0  0  0  0  0  0  0  0
   -1.6443    0.3421    0.0000 C   0  0  0  0  0  0  0  0  0  0  0  0
   -2.3384    0.7881    0.0000 C   0  0  0  0  0  0  0  0  0  0  0  0
   -2.2992    1.6122    0.0000 C   0  0  0  0  0  0  0  0  0  0  0  0
   -1.5659    1.9902    0.0000 C   0  0  0  0  0  0  0  0  0  0  0  0
  1  2  1  1  0  0  0
  2  3  2  0  0  0  0
  3  4  1  0  0  0  0
  4  5  2  0  0  0  0
  5  6  1  0  0  0  0
  2  6  1  0  0  0  0
  6  7  1  0  0  0  0
  7  8  2  0  0  0  0
  8  9  1  0  0  0  0
  1  9  1  0  0  0  0
  9 10  1  0  0  0  0
 10 11  1  0  0  0  0
 11 12  1  0  0  0  0
 12 13  1  0  0  0  0
  1 13  1  0  0  0  0
 13 14  1  0  0  0  0
 14 15  1  0  0  0  0
  3 15  1  0  0  0  0
  9 16  1  6  0  0  0
 16 17  1  0  0  0  0
  7 18  1  0  0  0  0
 18 19  1  0  0  0  0
 19 20  1  0  0  0  0
 20 21  1  0  0  0  0
 18 22  2  0  0  0  0
  5 23  1  0  0  0  0
 23 24  2  0  0  0  0
 24 25  1  0  0  0  0
 25 26  2  0  0  0  0
  4 26  1  0  0  0  0
M  END
>  <Name>
Vinpocetine

>  <CAS>
42971-09-5

>  <Formula>
C22H26N2O2

>  <MolWt>
350.45 

>  <Bioactivity>
Vinpocetine is a selective inhibitor of cyclic GMP phosphodiesterase (PDE).

>  <Pathways>
Immunology/Inflammation;Metabolism;Membrane Transporter/Ion Channel

>  <Target>
NF-?B inhibitor;PDE inhibitor; Sodium Channel inhibitor

>  <Receptor>
NF-?B;PDE;Sodium channel

>  <Reference>
1. Medina AE, et al. Proc Natl Acad Sci U S A. 2010 Jun 1; 107(22):9921-2.

$$$$
39133-31-8
  Mrv1561503291623562D          

 28 29  0  0  0  0            999 V2000
    4.2868   -3.3000    0.0000 C   0  0  0  0  0  0  0  0  0  0  0  0
    4.2868   -4.1250    0.0000 C   0  0  0  0  0  0  0  0  0  0  0  0
    3.5724   -4.5375    0.0000 C   0  0  0  0  0  0  0  0  0  0  0  0
    2.8579   -4.1250    0.0000 C   0  0  0  0  0  0  0  0  0  0  0  0
    2.8579   -3.3000    0.0000 C   0  0  0  0  0  0  0  0  0  0  0  0
    3.5724   -2.8875    0.0000 C   0  0  0  0  0  0  0  0  0  0  0  0
    3.5724   -2.0625    0.0000 C   0  0  0  0  0  0  0  0  0  0  0  0
    3.5724   -1.2375    0.0000 C   0  0  0  0  0  0  0  0  0  0  0  0
    4.2868   -0.8250    0.0000 O   0  0  0  0  0  0  0  0  0  0  0  0
    4.2868    0.0000    0.0000 C   0  0  0  0  0  0  0  0  0  0  0  0
    5.0013    0.4125    0.0000 C   0  0  0  0  0  0  0  0  0  0  0  0
    5.0013    1.2375    0.0000 C   0  0  0  0  0  0  0  0  0  0  0  0
    5.7158    1.6500    0.0000 C   0  0  0  0  0  0  0  0  0  0  0  0
    6.4302    1.2375    0.0000 C   0  0  0  0  0  0  0  0  0  0  0  0
    6.4302    0.4125    0.0000 C   0  0  0  0  0  0  0  0  0  0  0  0
    5.7158   -0.0000    0.0000 C   0  0  0  0  0  0  0  0  0  0  0  0
    7.1447   -0.0000    0.0000 O   0  0  0  0  0  0  0  0  0  0  0  0
    7.1447   -0.8250    0.0000 C   0  0  0  0  0  0  0  0  0  0  0  0
    7.1447    1.6500    0.0000 O   0  0  0  0  0  0  0  0  0  0  0  0
    7.1447    2.4750    0.0000 C   0  0  0  0  0  0  0  0  0  0  0  0
    5.7158    2.4750    0.0000 O   0  0  0  0  0  0  0  0  0  0  0  0
    6.4302    2.8875    0.0000 C   0  0  0  0  0  0  0  0  0  0  0  0
    3.5724    0.4125    0.0000 O   0  0  0  0  0  0  0  0  0  0  0  0
    4.3974   -2.0625    0.0000 N   0  0  0  0  0  0  0  0  0  0  0  0
    4.8099   -1.3480    0.0000 C   0  0  0  0  0  0  0  0  0  0  0  0
    4.8099   -2.7770    0.0000 C   0  0  0  0  0  0  0  0  0  0  0  0
    2.7474   -2.0625    0.0000 C   0  0  0  0  0  0  0  0  0  0  0  0
    2.3349   -1.3480    0.0000 C   0  0  0  0  0  0  0  0  0  0  0  0
  1  2  2  0  0  0  0
  2  3  1  0  0  0  0
  3  4  2  0  0  0  0
  4  5  1  0  0  0  0
  5  6  2  0  0  0  0
  1  6  1  0  0  0  0
  6  7  1  0  0  0  0
  7  8  1  0  0  0  0
  8  9  1  0  0  0  0
  9 10  1  0  0  0  0
 10 11  1  0  0  0  0
 11 12  2  0  0  0  0
 12 13  1  0  0  0  0
 13 14  2  0  0  0  0
 14 15  1  0  0  0  0
 15 16  2  0  0  0  0
 11 16  1  0  0  0  0
 15 17  1  0  0  0  0
 17 18  1  0  0  0  0
 14 19  1  0  0  0  0
 19 20  1  0  0  0  0
 13 21  1  0  0  0  0
 21 22  1  0  0  0  0
 10 23  2  0  0  0  0
  7 24  1  0  0  0  0
 24 25  1  0  0  0  0
 24 26  1  0  0  0  0
  7 27  1  0  0  0  0
 27 28  1  0  0  0  0
M  END
>  <Name>
Trimebutine

>  <CAS>
39133-31-8

>  <Formula>
C22H29NO5

>  <MolWt>
387.47 

>  <Bioactivity>
Trimebutine is a drug with antimuscarinic and weak mu opioid agonist effects.Trimebutine is an agonist of peripheral mu, kappa and delta opiate receptors, used as spasmolytic agent for treatment of both acute and chronic abdominal pain. The major product

>  <Pathways>
Neuroscience

>  <Target>
Opioid Receptor

>  <Receptor>
Opioid Receptor

>  <Reference>
1. Prescrire Int. 2013 Oct;22(142):241-2.

$$$$
T0396
  Mrv1561503291623562D          

 22 24  0  0  0  0            999 V2000
   -0.0000    0.0000    0.0000 C   0  0  0  0  0  0  0  0  0  0  0  0
   -0.7145   -0.4125    0.0000 N   0  0  0  0  0  0  0  0  0  0  0  0
   -0.7145   -1.2375    0.0000 C   0  0  0  0  0  0  0  0  0  0  0  0
   -0.0000   -1.6500    0.0000 N   0  0  0  0  0  0  0  0  0  0  0  0
    0.7145   -1.2375    0.0000 C   0  0  0  0  0  0  0  0  0  0  0  0
    0.7145   -0.4125    0.0000 C   0  0  0  0  0  0  0  0  0  0  0  0
    1.4289    0.0000    0.0000 C   0  0  0  0  0  0  0  0  0  0  0  0
    2.1434   -0.4125    0.0000 C   0  0  0  0  0  0  0  0  0  0  0  0
    2.1434   -1.2375    0.0000 C   0  0  0  0  0  0  0  0  0  0  0  0
    1.4289   -1.6500    0.0000 N   0  0  0  0  0  0  0  0  0  0  0  0
    1.4289   -2.4750    0.0000 C   0  0  0  0  0  0  0  0  0  0  0  0
    0.7145   -2.8875    0.0000 C   0  0  0  0  0  0  0  0  0  0  0  0
    2.8579    0.0000    0.0000 C   0  0  0  0  0  0  0  0  0  0  0  0
    3.5724   -0.4125    0.0000 O   0  0  0  0  0  0  0  0  0  0  0  0
    2.8579    0.8250    0.0000 O   0  0  0  0  0  0  0  0  0  0  0  0
    1.4289    0.8250    0.0000 O   0  0  0  0  0  0  0  0  0  0  0  0
   -1.4289   -1.6500    0.0000 N   0  0  0  0  0  0  0  0  0  0  0  0
   -1.4289   -2.4750    0.0000 C   0  0  0  0  0  0  0  0  0  0  0  0
   -2.1434   -2.8875    0.0000 C   0  0  0  0  0  0  0  0  0  0  0  0
   -2.8579   -2.4750    0.0000 N   0  0  0  0  0  0  0  0  0  0  0  0
   -2.8579   -1.6500    0.0000 C   0  0  0  0  0  0  0  0  0  0  0  0
   -2.1434   -1.2375    0.0000 C   0  0  0  0  0  0  0  0  0  0  0  0
  1  2  2  0  0  0  0
  2  3  1  0  0  0  0
  3  4  2  0  0  0  0
  4  5  1  0  0  0  0
  5  6  2  0  0  0  0
  1  6  1  0  0  0  0
  6  7  1  0  0  0  0
  7  8  1  0  0  0  0
  8  9  2  0  0  0  0
  9 10  1  0  0  0  0
  5 10  1  0  0  0  0
 10 11  1  0  0  0  0
 11 12  1  0  0  0  0
  8 13  1  0  0  0  0
 13 14  1  0  0  0  0
 13 15  2  0  0  0  0
  7 16  2  0  0  0  0
  3 17  1  0  0  0  0
 17 18  1  0  0  0  0
 18 19  1  0  0  0  0
 19 20  1  0  0  0  0
 20 21  1  0  0  0  0
 21 22  1  0  0  0  0
 17 22  1  0  0  0  0
M  END
>  <Name>
Pipemidic acid

>  <CAS>
51940-44-4

>  <Formula>
C14H17N5O3

>  <MolWt>
303.32 

>  <Bioactivity>
Antimicrobial against Gram negative and some Gram positive bacteria. It is protein bound and concentrated in bile and urine and used for gastrointestinal, biliary, and urinary infections. 

>  <Pathways>
Microbiology & Virology

>  <Target>
Antibiotic

>  <Receptor>
Others

>  <Reference>
1. Hoeglund AB, et al.
J Med Chem. 2010 Feb 11;53(3):1056-66.

$$$$
123524-52-7
  Mrv1561503291623562D          

 43 47  0  0  0  0            999 V2000
    0.9237    1.1167    0.0000 C   0  0  0  0  0  0  0  0  0  0  0  0
    1.6382    0.7042    0.0000 C   0  0  0  0  0  0  0  0  0  0  0  0
    1.6382   -0.1208    0.0000 C   0  0  0  0  0  0  0  0  0  0  0  0
    0.9237   -0.5333    0.0000 C   0  0  0  0  0  0  0  0  0  0  0  0
    0.2093   -0.1208    0.0000 C   0  0  0  0  0  0  0  0  0  0  0  0
    0.2093    0.7042    0.0000 C   0  0  0  0  0  0  0  0  0  0  0  0
   -0.5052    1.1167    0.0000 C   0  0  0  0  0  0  0  0  0  0  0  0
   -1.2197    0.7042    0.0000 C   0  0  0  0  0  0  0  0  0  0  0  0
   -1.9341    1.1167    0.0000 C   0  0  0  0  0  0  0  0  0  0  0  0
   -1.9341    1.9417    0.0000 N   0  0  0  0  0  0  0  0  0  0  0  0
   -1.2197    2.3542    0.0000 C   0  0  0  0  0  0  0  0  0  0  0  0
   -0.5052    1.9417    0.0000 C   0  0  0  0  0  0  0  0  0  0  0  0
    0.2093    2.3542    0.0000 C   0  0  0  0  0  0  0  0  0  0  0  0
    0.2093    3.1792    0.0000 O   0  0  0  0  0  0  0  0  0  0  0  0
    0.9237    3.5917    0.0000 C   0  0  0  0  0  0  0  0  0  0  0  0
    0.9237    4.4167    0.0000 C   0  0  0  0  0  0  0  0  0  0  0  0
    1.6382    3.1792    0.0000 C   0  0  0  0  0  0  0  0  0  0  0  0
    0.9237    1.9417    0.0000 O   0  0  0  0  0  0  0  0  0  0  0  0
   -1.2197    3.1792    0.0000 C   0  0  0  0  0  0  0  0  0  0  0  0
   -2.6486    0.7042    0.0000 N   0  0  0  0  0  0  0  0  0  0  0  0
   -1.2197   -0.1208    0.0000 C   0  0  0  0  0  0  0  0  0  0  0  0
   -0.5052   -0.5333    0.0000 O   0  0  0  0  0  0  0  0  0  0  0  0
   -0.5052   -1.3583    0.0000 C   0  0  0  0  0  0  0  0  0  0  0  0
    0.0782   -1.9417    0.0000 C   0  0  0  0  0  0  0  0  0  0  0  0
   -0.5052   -2.5250    0.0000 N   0  0  0  0  0  0  0  0  0  0  0  0
   -0.5052   -3.3500    0.0000 C   0  0  0  0  0  0  0  0  0  0  0  0
   -1.2197   -3.7625    0.0000 C   0  0  0  0  0  0  0  0  0  0  0  0
   -1.2197   -4.5875    0.0000 C   0  0  0  0  0  0  0  0  0  0  0  0
   -1.9341   -5.0000    0.0000 C   0  0  0  0  0  0  0  0  0  0  0  0
   -2.6486   -4.5875    0.0000 C   0  0  0  0  0  0  0  0  0  0  0  0
   -2.6486   -3.7625    0.0000 C   0  0  0  0  0  0  0  0  0  0  0  0
   -1.9341   -3.3500    0.0000 C   0  0  0  0  0  0  0  0  0  0  0  0
    0.2093   -3.7625    0.0000 C   0  0  0  0  0  0  0  0  0  0  0  0
    0.9237   -3.3500    0.0000 C   0  0  0  0  0  0  0  0  0  0  0  0
    1.6382   -3.7625    0.0000 C   0  0  0  0  0  0  0  0  0  0  0  0
    1.6382   -4.5875    0.0000 C   0  0  0  0  0  0  0  0  0  0  0  0
    0.9237   -5.0000    0.0000 C   0  0  0  0  0  0  0  0  0  0  0  0
    0.2093   -4.5875    0.0000 C   0  0  0  0  0  0  0  0  0  0  0  0
   -1.0886   -1.9417    0.0000 C   0  0  0  0  0  0  0  0  0  0  0  0
   -1.9341   -0.5333    0.0000 O   0  0  0  0  0  0  0  0  0  0  0  0
    2.3527    1.1167    0.0000 N   0  3  0  0  0  0  0  0  0  0  0  0
    3.0671    0.7042    0.0000 O   0  0  0  0  0  0  0  0  0  0  0  0
    2.3527    1.9417    0.0000 O   0  5  0  0  0  0  0  0  0  0  0  0
  1  2  2  0  0  0  0
  2  3  1  0  0  0  0
  3  4  2  0  0  0  0
  4  5  1  0  0  0  0
  5  6  2  0  0  0  0
  1  6  1  0  0  0  0
  6  7  1  0  0  0  0
  7  8  1  0  0  0  0
  8  9  2  0  0  0  0
  9 10  1  0  0  0  0
 10 11  1  0  0  0  0
 11 12  2  0  0  0  0
  7 12  1  0  0  0  0
 12 13  1  0  0  0  0
 13 14  1  0  0  0  0
 14 15  1  0  0  0  0
 15 16  1  0  0  0  0
 15 17  1  0  0  0  0
 13 18  2  0  0  0  0
 11 19  1  0  0  0  0
  9 20  1  0  0  0  0
  8 21  1  0  0  0  0
 21 22  1  0  0  0  0
 22 23  1  0  0  0  0
 23 24  1  0  0  0  0
 24 25  1  0  0  0  0
 25 26  1  0  0  0  0
 26 27  1  0  0  0  0
 27 28  2  0  0  0  0
 28 29  1  0  0  0  0
 29 30  2  0  0  0  0
 30 31  1  0  0  0  0
 31 32  2  0  0  0  0
 27 32  1  0  0  0  0
 26 33  1  0  0  0  0
 33 34  2  0  0  0  0
 34 35  1  0  0  0  0
 35 36  2  0  0  0  0
 36 37  1  0  0  0  0
 37 38  2  0  0  0  0
 33 38  1  0  0  0  0
 25 39  1  0  0  0  0
 23 39  1  0  0  0  0
 21 40  2  0  0  0  0
  2 41  1  0  0  0  0
 41 42  2  0  0  0  0
 41 43  1  0  0  0  0
M  CHG  2  41   1  43  -1
M  END
>  <Name>
Azelnidipine

>  <CAS>
123524-52-7

>  <Formula>
C33H34N4O6

>  <MolWt>
582.65 

>  <Bioactivity>
Azelnidipine is a dihydropyridine calcium channel blocker.

>  <Pathways>
Membrane Transporter/Ion Channel

>  <Target>
Calcium channel

>  <Receptor>
Calcium Channel

>  <Reference>
1. Kuramoto K, et al. Hypertens Res, 2003, 26(3), 201-208.

$$$$
171599-83-0
  Mrv1561503291623562D          

 46 48  0  0  0  0            999 V2000
    0.7450    0.0153    0.0000 C   0  0  0  0  0  0  0  0  0  0  0  0
    0.0305    0.4278    0.0000 C   0  0  0  0  0  0  0  0  0  0  0  0
   -0.6840    0.0153    0.0000 C   0  0  0  0  0  0  0  0  0  0  0  0
   -0.6840   -0.8097    0.0000 N   0  0  0  0  0  0  0  0  0  0  0  0
   -1.3984   -1.2222    0.0000 C   0  0  0  0  0  0  0  0  0  0  0  0
   -1.3984   -2.0472    0.0000 O   0  0  0  0  0  0  0  0  0  0  0  0
   -2.1129   -0.8097    0.0000 C   0  0  0  0  0  0  0  0  0  0  0  0
   -2.1129    0.0153    0.0000 C   0  0  0  0  0  0  0  0  0  0  0  0
   -1.3984    0.4278    0.0000 N   0  0  0  0  0  0  0  0  0  0  0  0
   -2.8975    0.2703    0.0000 C   0  0  0  0  0  0  0  0  0  0  0  0
   -3.3825   -0.3972    0.0000 N   0  0  0  0  0  0  0  0  0  0  0  0
   -2.8975   -1.0646    0.0000 N   0  0  0  0  0  0  0  0  0  0  0  0
   -3.1525   -1.8492    0.0000 C   0  0  0  0  0  0  0  0  0  0  0  0
   -3.1525    1.0549    0.0000 C   0  0  0  0  0  0  0  0  0  0  0  0
   -3.9594    1.2264    0.0000 C   0  0  0  0  0  0  0  0  0  0  0  0
   -4.2144    2.0110    0.0000 C   0  0  0  0  0  0  0  0  0  0  0  0
    0.0305    1.2528    0.0000 C   0  0  0  0  0  0  0  0  0  0  0  0
    0.7450    1.6653    0.0000 C   0  0  0  0  0  0  0  0  0  0  0  0
    1.4594    1.2528    0.0000 C   0  0  0  0  0  0  0  0  0  0  0  0
    1.4594    0.4278    0.0000 C   0  0  0  0  0  0  0  0  0  0  0  0
    2.1739    0.0153    0.0000 S   0  0  0  0  0  0  0  0  0  0  0  0
    1.7614   -0.6991    0.0000 O   0  0  0  0  0  0  0  0  0  0  0  0
    2.5864    0.7298    0.0000 O   0  0  0  0  0  0  0  0  0  0  0  0
    2.8884   -0.3972    0.0000 N   0  0  0  0  0  0  0  0  0  0  0  0
    3.6029    0.0153    0.0000 C   0  0  0  0  0  0  0  0  0  0  0  0
    4.3173   -0.3972    0.0000 C   0  0  0  0  0  0  0  0  0  0  0  0
    4.3173   -1.2222    0.0000 N   0  0  0  0  0  0  0  0  0  0  0  0
    3.6029   -1.6347    0.0000 C   0  0  0  0  0  0  0  0  0  0  0  0
    2.8884   -1.2222    0.0000 C   0  0  0  0  0  0  0  0  0  0  0  0
    5.0318   -1.6347    0.0000 C   0  0  0  0  0  0  0  0  0  0  0  0
   -0.6840    1.6653    0.0000 O   0  0  0  0  0  0  0  0  0  0  0  0
   -1.3984    1.2528    0.0000 C   0  0  0  0  0  0  0  0  0  0  0  0
   -2.1129    1.6653    0.0000 C   0  0  0  0  0  0  0  0  0  0  0  0
    8.9800   -0.5898    0.0000 C   0  0  0  0  0  0  0  0  0  0  0  0
    8.5675    0.1246    0.0000 C   0  0  0  0  0  0  0  0  0  0  0  0
    7.8530   -0.2879    0.0000 O   0  0  0  0  0  0  0  0  0  0  0  0
    9.2820    0.5371    0.0000 C   0  0  0  0  0  0  0  0  0  0  0  0
    9.9965    0.1246    0.0000 O   0  0  0  0  0  0  0  0  0  0  0  0
    9.2820    1.3621    0.0000 O   0  0  0  0  0  0  0  0  0  0  0  0
    8.1550    0.8391    0.0000 C   0  0  0  0  0  0  0  0  0  0  0  0
    7.3300    0.8391    0.0000 C   0  0  0  0  0  0  0  0  0  0  0  0
    6.9175    0.1246    0.0000 O   0  0  0  0  0  0  0  0  0  0  0  0
    6.9175    1.5536    0.0000 O   0  0  0  0  0  0  0  0  0  0  0  0
    8.5675   -1.3043    0.0000 C   0  0  0  0  0  0  0  0  0  0  0  0
    8.9800   -2.0188    0.0000 O   0  0  0  0  0  0  0  0  0  0  0  0
    7.7425   -1.3043    0.0000 O   0  0  0  0  0  0  0  0  0  0  0  0
  1  2  2  0  0  0  0
  2  3  1  0  0  0  0
  3  4  2  0  0  0  0
  4  5  1  0  0  0  0
  5  6  2  0  0  0  0
  5  7  1  0  0  0  0
  7  8  2  0  0  0  0
  8  9  1  0  0  0  0
  3  9  1  0  0  0  0
  8 10  1  0  0  0  0
 10 11  2  0  0  0  0
 11 12  1  0  0  0  0
  7 12  1  0  0  0  0
 12 13  1  0  0  0  0
 10 14  1  0  0  0  0
 14 15  1  0  0  0  0
 15 16  1  0  0  0  0
  2 17  1  0  0  0  0
 17 18  2  0  0  0  0
 18 19  1  0  0  0  0
 19 20  2  0  0  0  0
  1 20  1  0  0  0  0
 20 21  1  0  0  0  0
 21 22  2  0  0  0  0
 21 23  2  0  0  0  0
 21 24  1  0  0  0  0
 24 25  1  0  0  0  0
 25 26  1  0  0  0  0
 26 27  1  0  0  0  0
 27 28  1  0  0  0  0
 28 29  1  0  0  0  0
 24 29  1  0  0  0  0
 27 30  1  0  0  0  0
 17 31  1  0  0  0  0
 31 32  1  0  0  0  0
 32 33  1  0  0  0  0
 34 35  1  0  0  0  0
 35 36  1  0  0  0  0
 35 37  1  0  0  0  0
 37 38  2  0  0  0  0
 37 39  1  0  0  0  0
 35 40  1  0  0  0  0
 40 41  1  0  0  0  0
 41 42  2  0  0  0  0
 41 43  1  0  0  0  0
 34 44  1  0  0  0  0
 44 45  2  0  0  0  0
 44 46  1  0  0  0  0
M  END
>  <Name>
Sildenafil citrate

>  <CAS>
171599-83-0

>  <Formula>
C28H38N6O11S

>  <MolWt>
666.70 

>  <Bioactivity>
Sildenafil, a selective inhibitor of cyclic guanosine monophosphate (cGMP)-specific phosphodiesterase type 5 (PDE5), is a well-tolerated and highly effective treatment for erectile dysfunction.

>  <Pathways>
Metabolism

>  <Target>
PDE inhibitor

>  <Receptor>
PDE5, PDE6

>  <Reference>
1. Nehra A, et al. World J Urol, 2001, 19(1), 40-45.

$$$$
497-76-7
  Mrv1561503291623562D          

 19 20  0  0  0  0            999 V2000
   -0.0000   -2.4750    0.0000 C   0  0  0  0  0  0  0  0  0  0  0  0
   -0.7145   -2.8875    0.0000 C   0  0  0  0  0  0  0  0  0  0  0  0
   -0.7145   -3.7125    0.0000 O   0  0  0  0  0  0  0  0  0  0  0  0
   -0.0000   -4.1250    0.0000 C   0  0  0  0  0  0  0  0  0  0  0  0
    0.7145   -3.7125    0.0000 O   0  0  0  0  0  0  0  0  0  0  0  0
    1.4289   -4.1250    0.0000 C   0  0  0  0  0  0  0  0  0  0  0  0
    1.4289   -4.9500    0.0000 C   0  0  0  0  0  0  0  0  0  0  0  0
    2.1434   -5.3625    0.0000 O   0  0  0  0  0  0  0  0  0  0  0  0
    0.7145   -5.3625    0.0000 C   0  0  0  0  0  0  0  0  0  0  0  0
   -0.0000   -4.9500    0.0000 C   0  0  0  0  0  0  0  0  0  0  0  0
   -0.7145   -5.3625    0.0000 O   0  0  0  0  0  0  0  0  0  0  0  0
    0.7145   -6.1875    0.0000 O   0  0  0  0  0  0  0  0  0  0  0  0
    2.1434   -3.7125    0.0000 C   0  0  0  0  0  0  0  0  0  0  0  0
    2.8579   -4.1250    0.0000 O   0  0  0  0  0  0  0  0  0  0  0  0
   -1.4289   -2.4750    0.0000 C   0  0  0  0  0  0  0  0  0  0  0  0
   -1.4289   -1.6500    0.0000 C   0  0  0  0  0  0  0  0  0  0  0  0
   -0.7145   -1.2375    0.0000 C   0  0  0  0  0  0  0  0  0  0  0  0
   -0.0000   -1.6500    0.0000 C   0  0  0  0  0  0  0  0  0  0  0  0
   -0.7145   -0.4125    0.0000 O   0  0  0  0  0  0  0  0  0  0  0  0
  1  2  2  0  0  0  0
  2  3  1  0  0  0  0
  3  4  1  0  0  0  0
  4  5  1  0  0  0  0
  5  6  1  0  0  0  0
  6  7  1  0  0  0  0
  7  8  1  0  0  0  0
  7  9  1  0  0  0  0
  9 10  1  0  0  0  0
  4 10  1  0  0  0  0
 10 11  1  0  0  0  0
  9 12  1  0  0  0  0
  6 13  1  0  0  0  0
 13 14  1  0  0  0  0
  2 15  1  0  0  0  0
 15 16  2  0  0  0  0
 16 17  1  0  0  0  0
 17 18  2  0  0  0  0
  1 18  1  0  0  0  0
 17 19  1  0  0  0  0
M  END
>  <Name>
Arbutin

>  <CAS>
497-76-7

>  <Formula>
C12H16O7

>  <MolWt>
272.25 

>  <Bioactivity>
Arbutin is glucosylated hydroquinone, and may carry similar cancer risks, although there are also claims that arbutin reduces cancer risk. It prevents the formation of melanin.

>  <Pathways>
Enzyme

>  <Target>
Tyrosinase inhibitor

>  <Receptor>
tyrosinase

>  <Reference>
1. O'Donoghue, J L. Journal of Cosmetic Dermatology, 2006, 5(3): 196–203. 

$$$$
33401-94-4
  Mrv1561503291623562D          

 24 24  0  0  1  0            999 V2000
    0.3572    0.2063    0.0000 C   0  0  2  0  0  0  0  0  0  0  0  0
    0.3572    1.0313    0.0000 O   0  0  0  0  0  0  0  0  0  0  0  0
   -0.3572   -0.2062    0.0000 C   0  0  1  0  0  0  0  0  0  0  0  0
   -0.3572   -1.0312    0.0000 O   0  0  0  0  0  0  0  0  0  0  0  0
   -1.0717    0.2063    0.0000 C   0  0  0  0  0  0  0  0  0  0  0  0
   -1.7862   -0.2063    0.0000 O   0  0  0  0  0  0  0  0  0  0  0  0
   -1.0717    1.0312    0.0000 O   0  0  0  0  0  0  0  0  0  0  0  0
    1.0717   -0.2062    0.0000 C   0  0  0  0  0  0  0  0  0  0  0  0
    1.7862    0.2063    0.0000 O   0  0  0  0  0  0  0  0  0  0  0  0
    1.0717   -1.0312    0.0000 O   0  0  0  0  0  0  0  0  0  0  0  0
    4.9048   -1.7664    0.0000 C   0  0  0  0  0  0  0  0  0  0  0  0
    5.5723   -1.2815    0.0000 C   0  0  0  0  0  0  0  0  0  0  0  0
    6.2397   -1.7664    0.0000 S   0  0  0  0  0  0  0  0  0  0  0  0
    5.9848   -2.5510    0.0000 C   0  0  0  0  0  0  0  0  0  0  0  0
    5.1598   -2.5510    0.0000 C   0  0  0  0  0  0  0  0  0  0  0  0
    5.5723   -0.4565    0.0000 C   0  0  0  0  0  0  0  0  0  0  0  0
    4.8578   -0.0440    0.0000 C   0  0  0  0  0  0  0  0  0  0  0  0
    4.8578    0.7810    0.0000 C   0  0  0  0  0  0  0  0  0  0  0  0
    4.1433    1.1935    0.0000 N   0  0  0  0  0  0  0  0  0  0  0  0
    4.1433    2.0185    0.0000 C   0  0  0  0  0  0  0  0  0  0  0  0
    4.8578    2.4310    0.0000 C   0  0  0  0  0  0  0  0  0  0  0  0
    5.5723    2.0185    0.0000 C   0  0  0  0  0  0  0  0  0  0  0  0
    5.5723    1.1935    0.0000 N   0  0  0  0  0  0  0  0  0  0  0  0
    6.2867    0.7810    0.0000 C   0  0  0  0  0  0  0  0  0  0  0  0
  1  2  1  1  0  0  0
  1  3  1  0  0  0  0
  3  4  1  1  0  0  0
  3  5  1  0  0  0  0
  5  6  2  0  0  0  0
  5  7  1  0  0  0  0
  1  8  1  0  0  0  0
  8  9  2  0  0  0  0
  8 10  1  0  0  0  0
 11 12  2  0  0  0  0
 12 13  1  0  0  0  0
 13 14  1  0  0  0  0
 14 15  2  0  0  0  0
 11 15  1  0  0  0  0
 12 16  1  0  0  0  0
 16 17  2  0  0  0  0
 17 18  1  0  0  0  0
 18 19  2  0  0  0  0
 19 20  1  0  0  0  0
 20 21  1  0  0  0  0
 21 22  1  0  0  0  0
 22 23  1  0  0  0  0
 18 23  1  0  0  0  0
 23 24  1  0  0  0  0
M  END
>  <Name>
Pyrantel tartrate

>  <CAS>
33401-94-4

>  <Formula>
C15H20N2O6S

>  <MolWt>
356.39 

>  <Bioactivity>
Broad spectrum anthelmintic for livestock. 

>  <Pathways>
Others

>  <Target>
Others

>  <Receptor>
Others

>  <Reference>
1. Pratt SE, et al. Am J Vet Res. 1981 May;42(5):871-2.

$$$$
341-69-5
  Mrv1561503291623562D          

 22 21  0  0  0  0            999 V2000
    0.4125    0.0000    0.0000 H   0  3  0  0  0  0  0  0  0  0  0  0
    3.0127    0.1444    0.0000 C   0  0  0  0  0  0  0  0  0  0  0  0
    2.2982    0.5569    0.0000 C   0  0  0  0  0  0  0  0  0  0  0  0
    2.2982    1.3819    0.0000 C   0  0  0  0  0  0  0  0  0  0  0  0
    3.0127    1.7944    0.0000 C   0  0  0  0  0  0  0  0  0  0  0  0
    3.7272    1.3819    0.0000 C   0  0  0  0  0  0  0  0  0  0  0  0
    3.7272    0.5569    0.0000 C   0  0  0  0  0  0  0  0  0  0  0  0
    4.4416    0.1444    0.0000 C   0  0  0  0  0  0  0  0  0  0  0  0
    5.1561    0.5569    0.0000 O   0  0  0  0  0  0  0  0  0  0  0  0
    5.8706    0.1444    0.0000 C   0  0  0  0  0  0  0  0  0  0  0  0
    6.5850    0.5569    0.0000 C   0  0  0  0  0  0  0  0  0  0  0  0
    7.2995    0.1444    0.0000 N   0  0  0  0  0  0  0  0  0  0  0  0
    8.0140    0.5569    0.0000 C   0  0  0  0  0  0  0  0  0  0  0  0
    7.2995   -0.6806    0.0000 C   0  0  0  0  0  0  0  0  0  0  0  0
    4.4416   -0.6806    0.0000 C   0  0  0  0  0  0  0  0  0  0  0  0
    5.1561   -1.0931    0.0000 C   0  0  0  0  0  0  0  0  0  0  0  0
    5.1561   -1.9181    0.0000 C   0  0  0  0  0  0  0  0  0  0  0  0
    4.4416   -2.3306    0.0000 C   0  0  0  0  0  0  0  0  0  0  0  0
    3.7272   -1.9181    0.0000 C   0  0  0  0  0  0  0  0  0  0  0  0
    3.7272   -1.0931    0.0000 C   0  0  0  0  0  0  0  0  0  0  0  0
    4.4416    1.7944    0.0000 C   0  0  0  0  0  0  0  0  0  0  0  0
   -0.4125    0.0000    0.0000 Cl  0  5  0  0  0  0  0  0  0  0  0  0
  2  3  2  0  0  0  0
  3  4  1  0  0  0  0
  4  5  2  0  0  0  0
  5  6  1  0  0  0  0
  6  7  2  0  0  0  0
  2  7  1  0  0  0  0
  7  8  1  0  0  0  0
  8  9  1  0  0  0  0
  9 10  1  0  0  0  0
 10 11  1  0  0  0  0
 11 12  1  0  0  0  0
 12 13  1  0  0  0  0
 12 14  1  0  0  0  0
  8 15  1  0  0  0  0
 15 16  2  0  0  0  0
 16 17  1  0  0  0  0
 17 18  2  0  0  0  0
 18 19  1  0  0  0  0
 19 20  2  0  0  0  0
 15 20  1  0  0  0  0
  6 21  1  0  0  0  0
M  CHG  2   1   1  22  -1
M  END
>  <Name>
Orphenadrine HCl

>  <CAS>
341-69-5

>  <Formula>
C18H23NO.HCl

>  <MolWt>
305.85 

>  <Bioactivity>
Orphenadrine is an anticholinergic drug of the ethanolamine antihistamine class with prominent central nervous system (CNS) and peripheral actions used to treat painful muscle spasms and other similar conditions, as well as the treatment of some aspects of Parkinson's disease. It is closely related to diphenhydramine. Therefore, it is related to other drugs used for Parkinson's, such as benztropine and trihexyphenidyl, and it is also structurally related to nefopam, which is a centrally acting yet nonopioid analgesic. The combination of anticholinergic effects and CNS penetration make orphenadrine useful for pain of all etiologies, including from: radiculopathy, muscles, and headaches

>  <Pathways>
Neuroscience

>  <Target>
Histamine Receptor antagonist;NMDAR antagonist;Sodium Channel inhibitor

>  <Receptor>
Histamine H1 receptor;NMDA;Sodium-dependent noradrenaline transporter;Sodium channel

>  <Reference>
1. Kornhuber J, et al. J Neural Transm Gen Sect. 1995;102(3):237-46.

$$$$
41354-29-4
  Mrv1561503291623562D          

 51 50  0  0  0  0            999 V2000
   -0.0000    2.3672    0.0000 N   0  0  0  0  0  0  0  0  0  0  0  0
    0.7145    1.9547    0.0000 C   0  0  0  0  0  0  0  0  0  0  0  0
    0.7145    1.1297    0.0000 C   0  0  0  0  0  0  0  0  0  0  0  0
    0.0000    0.7172    0.0000 C   0  0  0  0  0  0  0  0  0  0  0  0
    0.0000   -0.1078    0.0000 C   0  0  0  0  0  0  0  0  0  0  0  0
    0.7433   -0.4658    0.0000 C   0  0  0  0  0  0  0  0  0  0  0  0
    0.9269   -1.2701    0.0000 C   0  0  0  0  0  0  0  0  0  0  0  0
    0.4125   -1.9151    0.0000 C   0  0  0  0  0  0  0  0  0  0  0  0
   -0.4125   -1.9151    0.0000 C   0  0  0  0  0  0  0  0  0  0  0  0
   -0.9269   -1.2701    0.0000 C   0  0  0  0  0  0  0  0  0  0  0  0
   -0.7433   -0.4658    0.0000 C   0  0  0  0  0  0  0  0  0  0  0  0
   -1.3481    0.0954    0.0000 C   0  0  0  0  0  0  0  0  0  0  0  0
   -2.1364   -0.1478    0.0000 C   0  0  0  0  0  0  0  0  0  0  0  0
   -2.3200   -0.9521    0.0000 C   0  0  0  0  0  0  0  0  0  0  0  0
   -1.7152   -1.5133    0.0000 C   0  0  0  0  0  0  0  0  0  0  0  0
    1.7152   -1.5133    0.0000 C   0  0  0  0  0  0  0  0  0  0  0  0
    2.3200   -0.9521    0.0000 C   0  0  0  0  0  0  0  0  0  0  0  0
    2.1364   -0.1478    0.0000 C   0  0  0  0  0  0  0  0  0  0  0  0
    1.3481    0.0954    0.0000 C   0  0  0  0  0  0  0  0  0  0  0  0
   -0.7145    1.1297    0.0000 C   0  0  0  0  0  0  0  0  0  0  0  0
   -0.7145    1.9547    0.0000 C   0  0  0  0  0  0  0  0  0  0  0  0
   -0.0000    3.1922    0.0000 C   0  0  0  0  0  0  0  0  0  0  0  0
    6.5257    2.3672    0.0000 N   0  0  0  0  0  0  0  0  0  0  0  0
    7.2402    1.9547    0.0000 C   0  0  0  0  0  0  0  0  0  0  0  0
    7.2402    1.1297    0.0000 C   0  0  0  0  0  0  0  0  0  0  0  0
    6.5257    0.7172    0.0000 C   0  0  0  0  0  0  0  0  0  0  0  0
    6.5257   -0.1078    0.0000 C   0  0  0  0  0  0  0  0  0  0  0  0
    7.2690   -0.4658    0.0000 C   0  0  0  0  0  0  0  0  0  0  0  0
    7.4526   -1.2701    0.0000 C   0  0  0  0  0  0  0  0  0  0  0  0
    6.9382   -1.9151    0.0000 C   0  0  0  0  0  0  0  0  0  0  0  0
    6.1132   -1.9151    0.0000 C   0  0  0  0  0  0  0  0  0  0  0  0
    5.5988   -1.2701    0.0000 C   0  0  0  0  0  0  0  0  0  0  0  0
    5.7824   -0.4658    0.0000 C   0  0  0  0  0  0  0  0  0  0  0  0
    5.1776    0.0954    0.0000 C   0  0  0  0  0  0  0  0  0  0  0  0
    4.3893   -0.1478    0.0000 C   0  0  0  0  0  0  0  0  0  0  0  0
    4.2057   -0.9521    0.0000 C   0  0  0  0  0  0  0  0  0  0  0  0
    4.8105   -1.5133    0.0000 C   0  0  0  0  0  0  0  0  0  0  0  0
    8.2409   -1.5133    0.0000 C   0  0  0  0  0  0  0  0  0  0  0  0
    8.8457   -0.9521    0.0000 C   0  0  0  0  0  0  0  0  0  0  0  0
    8.6621   -0.1478    0.0000 C   0  0  0  0  0  0  0  0  0  0  0  0
    7.8738    0.0954    0.0000 C   0  0  0  0  0  0  0  0  0  0  0  0
    5.8112    1.1297    0.0000 C   0  0  0  0  0  0  0  0  0  0  0  0
    5.8112    1.9547    0.0000 C   0  0  0  0  0  0  0  0  0  0  0  0
    6.5257    3.1922    0.0000 C   0  0  0  0  0  0  0  0  0  0  0  0
   12.0278    0.0000    0.0000 H   0  3  0  0  0  0  0  0  0  0  0  0
    0.4125   -3.5651    0.0000 H   0  3  0  0  0  0  0  0  0  0  0  0
   11.2028    0.0000    0.0000 Cl  0  5  0  0  0  0  0  0  0  0  0  0
   -0.4125   -3.5651    0.0000 Cl  0  5  0  0  0  0  0  0  0  0  0  0
    2.7696   -3.5651    0.0000 O   0  0  0  0  0  0  0  0  0  0  0  0
    5.1268   -3.5651    0.0000 O   0  0  0  0  0  0  0  0  0  0  0  0
    0.0000   -5.2151    0.0000 O   0  0  0  0  0  0  0  0  0  0  0  0
  1  2  1  0  0  0  0
  2  3  1  0  0  0  0
  3  4  1  0  0  0  0
  4  5  2  3  0  0  0
  5  6  1  0  0  0  0
  6  7  2  0  0  0  0
  7  8  1  0  0  0  0
  8  9  2  0  0  0  0
  9 10  1  0  0  0  0
 10 11  2  0  0  0  0
  5 11  1  0  0  0  0
 11 12  1  0  0  0  0
 12 13  2  0  0  0  0
 13 14  1  0  0  0  0
 14 15  2  0  0  0  0
 10 15  1  0  0  0  0
  7 16  1  0  0  0  0
 16 17  2  0  0  0  0
 17 18  1  0  0  0  0
 18 19  2  0  0  0  0
  6 19  1  0  0  0  0
  4 20  1  0  0  0  0
 20 21  1  0  0  0  0
  1 21  1  0  0  0  0
  1 22  1  0  0  0  0
 23 24  1  0  0  0  0
 24 25  1  0  0  0  0
 25 26  1  0  0  0  0
 26 27  2  3  0  0  0
 27 28  1  0  0  0  0
 28 29  2  0  0  0  0
 29 30  1  0  0  0  0
 30 31  2  0  0  0  0
 31 32  1  0  0  0  0
 32 33  2  0  0  0  0
 27 33  1  0  0  0  0
 33 34  1  0  0  0  0
 34 35  2  0  0  0  0
 35 36  1  0  0  0  0
 36 37  2  0  0  0  0
 32 37  1  0  0  0  0
 29 38  1  0  0  0  0
 38 39  2  0  0  0  0
 39 40  1  0  0  0  0
 40 41  2  0  0  0  0
 28 41  1  0  0  0  0
 26 42  1  0  0  0  0
 42 43  1  0  0  0  0
 23 43  1  0  0  0  0
 23 44  1  0  0  0  0
M  CHG  4  45   1  46   1  47  -1  48  -1
M  END
>  <Name>
Cyproheptadine HCl

>  <CAS>
41354-29-4

>  <Formula>
C21H22ClN

>  <MolWt>
323.87 

>  <Bioactivity>
Cyproheptadine hydrochloride is an antagonist of serotonin receptor.

>  <Pathways>
Neuroscience 

>  <Target>
Histamine Receptor antagonist;5-HT receptor antagonist;AChR antagonist

>  <Receptor>
Histamine H1 receptor; 5-HT Receptor;Muscarinic AChR

>  <Reference>
1. Rashid M, et al. Jpn J Pharmacol. 2002 Aug;89(4):405-12.

$$$$
34140-59-5
  Mrv1561503291623562D          

 36 36  0  0  0  0            999 V2000
   -1.2180    0.4380    0.0000 C   0  0  0  0  0  0  0  0  0  0  0  0
   -1.2180   -0.3870    0.0000 C   0  0  0  0  0  0  0  0  0  0  0  0
   -0.5035   -0.7995    0.0000 C   0  0  0  0  0  0  0  0  0  0  0  0
    0.2110   -0.3870    0.0000 O   0  0  0  0  0  0  0  0  0  0  0  0
    0.9254   -0.7995    0.0000 C   0  0  0  0  0  0  0  0  0  0  0  0
    1.6399   -0.3870    0.0000 C   0  0  0  0  0  0  0  0  0  0  0  0
    2.0524   -1.1015    0.0000 N   0  3  0  0  0  0  0  0  0  0  0  0
    2.8774   -1.1015    0.0000 C   0  0  0  0  0  0  0  0  0  0  0  0
    1.6399   -1.8159    0.0000 C   0  0  0  0  0  0  0  0  0  0  0  0
    2.3544    0.0255    0.0000 C   0  0  0  0  0  0  0  0  0  0  0  0
    2.3544    0.8505    0.0000 C   0  0  0  0  0  0  0  0  0  0  0  0
    3.0689    1.2630    0.0000 C   0  0  0  0  0  0  0  0  0  0  0  0
    3.7833    0.8505    0.0000 C   0  0  0  0  0  0  0  0  0  0  0  0
    3.7833    0.0255    0.0000 C   0  0  0  0  0  0  0  0  0  0  0  0
    3.0689   -0.3870    0.0000 C   0  0  0  0  0  0  0  0  0  0  0  0
    1.2274    0.3275    0.0000 C   0  0  0  0  0  0  0  0  0  0  0  0
    1.6399    1.0420    0.0000 C   0  0  0  0  0  0  0  0  0  0  0  0
   -0.5035   -1.6245    0.0000 O   0  0  0  0  0  0  0  0  0  0  0  0
   -1.9324   -0.7995    0.0000 C   0  0  0  0  0  0  0  0  0  0  0  0
   -2.6469   -0.3870    0.0000 C   0  0  0  0  0  0  0  0  0  0  0  0
   -3.3614   -0.7995    0.0000 O   0  0  0  0  0  0  0  0  0  0  0  0
   -4.0759   -0.3870    0.0000 C   0  0  0  0  0  0  0  0  0  0  0  0
   -2.6469    0.4380    0.0000 C   0  0  0  0  0  0  0  0  0  0  0  0
   -1.9324    0.8505    0.0000 C   0  0  0  0  0  0  0  0  0  0  0  0
   -1.9324    1.6755    0.0000 O   0  0  0  0  0  0  0  0  0  0  0  0
   -1.2180    2.0880    0.0000 C   0  0  0  0  0  0  0  0  0  0  0  0
   -3.3614    0.8505    0.0000 O   0  0  0  0  0  0  0  0  0  0  0  0
   -4.0759    0.4380    0.0000 C   0  0  0  0  0  0  0  0  0  0  0  0
    8.9690    0.7145    0.0000 O   0  0  0  0  0  0  0  0  0  0  0  0
    8.1440    0.7145    0.0000 C   0  0  0  0  0  0  0  0  0  0  0  0
    7.7315    1.4289    0.0000 O   0  5  0  0  0  0  0  0  0  0  0  0
    7.7315   -0.0000    0.0000 C   0  0  0  0  0  0  0  0  0  0  0  0
    6.9065   -0.0000    0.0000 C   0  0  0  0  0  0  0  0  0  0  0  0
    6.4940   -0.7145    0.0000 C   0  0  0  0  0  0  0  0  0  0  0  0
    6.9065   -1.4289    0.0000 O   0  0  0  0  0  0  0  0  0  0  0  0
    5.6690   -0.7145    0.0000 O   0  0  0  0  0  0  0  0  0  0  0  0
  1  2  2  0  0  0  0
  2  3  1  0  0  0  0
  3  4  1  0  0  0  0
  4  5  1  0  0  0  0
  5  6  1  0  0  0  0
  6  7  1  0  0  0  0
  7  8  1  0  0  0  0
  7  9  1  0  0  0  0
  6 10  1  0  0  0  0
 10 11  2  0  0  0  0
 11 12  1  0  0  0  0
 12 13  2  0  0  0  0
 13 14  1  0  0  0  0
 14 15  2  0  0  0  0
 10 15  1  0  0  0  0
  6 16  1  0  0  0  0
 16 17  1  0  0  0  0
  3 18  2  0  0  0  0
  2 19  1  0  0  0  0
 19 20  2  0  0  0  0
 20 21  1  0  0  0  0
 21 22  1  0  0  0  0
 20 23  1  0  0  0  0
 23 24  2  0  0  0  0
  1 24  1  0  0  0  0
 24 25  1  0  0  0  0
 25 26  1  0  0  0  0
 23 27  1  0  0  0  0
 27 28  1  0  0  0  0
 29 30  2  0  0  0  0
 30 31  1  0  0  0  0
 30 32  1  0  0  0  0
 32 33  2  0  0  0  0
 33 34  1  0  0  0  0
 34 35  2  0  0  0  0
 34 36  1  0  0  0  0
M  CHG  2   7   1  31  -1
M  END
>  <Name>
Dromostat

>  <CAS>
34140-59-5

>  <Formula>
C26H33NO9

>  <MolWt>
503.55 

>  <Bioactivity>
Proposed spasmolytic with possible local anesthetic action used in gastrointestinal disorders.

>  <Pathways>
Membrane Transporter/Ion Channel

>  <Target>
Calcium Channel inhibitor

>  <Receptor>
Calcium channels

>  <Reference>
1. Tan W, et al. Arch Pharm Res. 2011 Jun;34(6):979-85. 

$$$$
4008-48-4
  Mrv1561503291623562D          

 14 15  0  0  0  0            999 V2000
    0.0000   -1.6500    0.0000 C   0  0  0  0  0  0  0  0  0  0  0  0
    0.7145   -1.2375    0.0000 C   0  0  0  0  0  0  0  0  0  0  0  0
    0.7145   -0.4125    0.0000 C   0  0  0  0  0  0  0  0  0  0  0  0
   -0.0000    0.0000    0.0000 N   0  0  0  0  0  0  0  0  0  0  0  0
   -0.7145   -0.4125    0.0000 C   0  0  0  0  0  0  0  0  0  0  0  0
   -0.7145   -1.2375    0.0000 C   0  0  0  0  0  0  0  0  0  0  0  0
    1.4289    0.0000    0.0000 C   0  0  0  0  0  0  0  0  0  0  0  0
    2.1434   -0.4125    0.0000 C   0  0  0  0  0  0  0  0  0  0  0  0
    2.1434   -1.2375    0.0000 C   0  0  0  0  0  0  0  0  0  0  0  0
    1.4289   -1.6500    0.0000 C   0  0  0  0  0  0  0  0  0  0  0  0
    1.4289   -2.4750    0.0000 N   0  3  0  0  0  0  0  0  0  0  0  0
    2.1434   -2.8875    0.0000 O   0  0  0  0  0  0  0  0  0  0  0  0
    0.7145   -2.8875    0.0000 O   0  5  0  0  0  0  0  0  0  0  0  0
    1.4289    0.8250    0.0000 O   0  0  0  0  0  0  0  0  0  0  0  0
  1  2  2  0  0  0  0
  2  3  1  0  0  0  0
  3  4  2  0  0  0  0
  4  5  1  0  0  0  0
  5  6  2  0  0  0  0
  1  6  1  0  0  0  0
  3  7  1  0  0  0  0
  7  8  2  0  0  0  0
  8  9  1  0  0  0  0
  9 10  2  0  0  0  0
  2 10  1  0  0  0  0
 10 11  1  0  0  0  0
 11 12  2  0  0  0  0
 11 13  1  0  0  0  0
  7 14  1  0  0  0  0
M  CHG  2  11   1  13  -1
M  END
>  <Name>
Nitroxoline

>  <CAS>
4008-48-4

>  <Formula>
C9H6N2O3

>  <MolWt>
190.16 

>  <Bioactivity>
Nitroxoline is a urinary antibacterial agent active against susceptible gram-positive and gram-negative organisms commonly found in urinary tract infections. It is a fluorquinolone that is active against bacterial gyrases. 

>  <Pathways>
Others

>  <Target>
Chelator

>  <Receptor>
Manganese cation;METAP 2

>  <Reference>
1. Shim JS, et al. J Natl Cancer Inst. 2010 Dec 15;102(24):1855-73.

$$$$
T1187
  Mrv1561503291623562D          

 24 27  0  0  0  0            999 V2000
   -2.0367   -2.9491    0.0000 C   0  0  0  0  0  0  0  0  0  0  0  0
   -2.7512   -2.5366    0.0000 C   0  0  0  0  0  0  0  0  0  0  0  0
   -2.7512   -1.7116    0.0000 C   0  0  0  0  0  0  0  0  0  0  0  0
   -2.0367   -1.2991    0.0000 C   0  0  0  0  0  0  0  0  0  0  0  0
   -1.3222   -1.7116    0.0000 C   0  0  0  0  0  0  0  0  0  0  0  0
   -1.3222   -2.5366    0.0000 C   0  0  0  0  0  0  0  0  0  0  0  0
   -0.6078   -2.9491    0.0000 C   0  0  0  0  0  0  0  0  0  0  0  0
   -0.6078   -3.7741    0.0000 N   0  0  0  0  0  0  0  0  0  0  0  0
    0.0597   -4.2590    0.0000 C   0  0  0  0  0  0  0  0  0  0  0  0
   -0.1953   -5.0437    0.0000 C   0  0  0  0  0  0  0  0  0  0  0  0
   -1.0203   -5.0437    0.0000 N   0  0  0  0  0  0  0  0  0  0  0  0
   -1.2752   -4.2590    0.0000 C   0  0  0  0  0  0  0  0  0  0  0  0
    0.1067   -2.5366    0.0000 C   0  0  0  0  0  0  0  0  0  0  0  0
    0.1067   -1.7116    0.0000 C   0  0  0  0  0  0  0  0  0  0  0  0
    0.8212   -1.2991    0.0000 C   0  0  0  0  0  0  0  0  0  0  0  0
    1.5356   -1.7116    0.0000 C   0  0  0  0  0  0  0  0  0  0  0  0
    1.5356   -2.5366    0.0000 C   0  0  0  0  0  0  0  0  0  0  0  0
    0.8212   -2.9491    0.0000 C   0  0  0  0  0  0  0  0  0  0  0  0
   -3.4656   -1.2991    0.0000 C   0  0  0  0  0  0  0  0  0  0  0  0
   -4.1801   -1.7116    0.0000 C   0  0  0  0  0  0  0  0  0  0  0  0
   -4.8946   -1.2991    0.0000 C   0  0  0  0  0  0  0  0  0  0  0  0
   -4.8946   -0.4741    0.0000 C   0  0  0  0  0  0  0  0  0  0  0  0
   -4.1801   -0.0616    0.0000 C   0  0  0  0  0  0  0  0  0  0  0  0
   -3.4656   -0.4741    0.0000 C   0  0  0  0  0  0  0  0  0  0  0  0
  1  2  2  0  0  0  0
  2  3  1  0  0  0  0
  3  4  2  0  0  0  0
  4  5  1  0  0  0  0
  5  6  2  0  0  0  0
  1  6  1  0  0  0  0
  6  7  1  0  0  0  0
  7  8  1  0  0  0  0
  8  9  1  0  0  0  0
  9 10  2  0  0  0  0
 10 11  1  0  0  0  0
 11 12  2  0  0  0  0
  8 12  1  0  0  0  0
  7 13  1  0  0  0  0
 13 14  2  0  0  0  0
 14 15  1  0  0  0  0
 15 16  2  0  0  0  0
 16 17  1  0  0  0  0
 17 18  2  0  0  0  0
 13 18  1  0  0  0  0
  3 19  1  0  0  0  0
 19 20  2  0  0  0  0
 20 21  1  0  0  0  0
 21 22  2  0  0  0  0
 22 23  1  0  0  0  0
 23 24  2  0  0  0  0
 19 24  1  0  0  0  0
M  END
>  <Name>
Bifonazole

>  <CAS>
60628-96-8

>  <Formula>
C22H18N2

>  <MolWt>
310.39 

>  <Bioactivity>
Bifonazole is an azole antifungal drug. 

>  <Pathways>
Microbiology & Virology

>  <Target>
Antifungal; Demethylase inhibitor

>  <Receptor>
others;CYP51

>  <Reference>
1. Carrillo-Munoz AJ, et al. Rev Esp Quimioter. 2006 Jun;19(2):130-9.

$$$$
124-94-7
  Mrv1561503291623562D          

 28 31  0  0  1  0            999 V2000
    2.3387    0.7029    0.0000 C   0  0  2  0  0  0  0  0  0  0  0  0
    2.8705    0.0722    0.0000 C   0  0  2  0  0  0  0  0  0  0  0  0
    3.6826    0.2174    0.0000 C   0  0  1  0  0  0  0  0  0  0  0  0
    3.9629    0.9934    0.0000 C   0  0  2  0  0  0  0  0  0  0  0  0
    4.7875    0.9666    0.0000 C   0  0  2  0  0  0  0  0  0  0  0  0
    5.5996    1.1118    0.0000 C   0  0  0  0  0  0  0  0  0  0  0  0
    5.8799    1.8877    0.0000 C   0  0  0  0  0  0  0  0  0  0  0  0
    5.3481    2.5184    0.0000 O   0  0  0  0  0  0  0  0  0  0  0  0
    6.1315    0.4811    0.0000 O   0  0  0  0  0  0  0  0  0  0  0  0
    4.7280    1.7894    0.0000 O   0  0  0  0  0  0  0  0  0  0  0  0
    5.0168    0.1741    0.0000 C   0  0  1  0  0  0  0  0  0  0  0  0
    4.3340   -0.2889    0.0000 C   0  0  0  0  0  0  0  0  0  0  0  0
    5.7927   -0.1062    0.0000 O   0  0  0  0  0  0  0  0  0  0  0  0
    4.3228    1.7357    0.0000 C   0  0  0  0  0  0  0  0  0  0  0  0
    3.4311    1.6241    0.0000 C   0  0  0  0  0  0  0  0  0  0  0  0
    2.6190    1.4789    0.0000 C   0  0  2  0  0  0  0  0  0  0  0  0
    2.0872    2.1096    0.0000 O   0  0  0  0  0  0  0  0  0  0  0  0
    2.5902   -0.7037    0.0000 C   0  0  0  0  0  0  0  0  0  0  0  0
    1.7781   -0.8489    0.0000 C   0  0  0  0  0  0  0  0  0  0  0  0
    1.2463   -0.2182    0.0000 C   0  0  0  0  0  0  0  0  0  0  0  0
    0.4342   -0.3634    0.0000 C   0  0  0  0  0  0  0  0  0  0  0  0
   -0.0976    0.2673    0.0000 C   0  0  0  0  0  0  0  0  0  0  0  0
   -0.9098    0.1221    0.0000 O   0  0  0  0  0  0  0  0  0  0  0  0
    0.1827    1.0432    0.0000 C   0  0  0  0  0  0  0  0  0  0  0  0
    0.9948    1.1884    0.0000 C   0  0  0  0  0  0  0  0  0  0  0  0
    1.5266    0.5577    0.0000 C   0  0  2  0  0  0  0  0  0  0  0  0
    1.8069    1.3336    0.0000 C   0  0  0  0  0  0  0  0  0  0  0  0
    2.2792    1.5258    0.0000 F   0  0  0  0  0  0  0  0  0  0  0  0
  1  2  1  0  0  0  0
  2  3  1  0  0  0  0
  3  4  1  0  0  0  0
  4  5  1  0  0  0  0
  5  6  1  1  0  0  0
  6  7  1  0  0  0  0
  7  8  1  0  0  0  0
  6  9  2  0  0  0  0
  5 10  1  6  0  0  0
  5 11  1  0  0  0  0
 11 12  1  0  0  0  0
  3 12  1  1  0  0  0
 11 13  1  6  0  0  0
  4 14  1  1  0  0  0
  4 15  1  0  0  0  0
 15 16  1  0  0  0  0
  1 16  1  0  0  0  0
 16 17  1  1  0  0  0
  2 18  1  6  0  0  0
 18 19  1  0  0  0  0
 19 20  1  0  0  0  0
 20 21  2  0  0  0  0
 21 22  1  0  0  0  0
 22 23  2  0  0  0  0
 22 24  1  0  0  0  0
 24 25  2  0  0  0  0
 25 26  1  0  0  0  0
  1 26  1  0  0  0  0
 20 26  1  0  0  0  0
 26 27  1  1  0  0  0
  1 28  1  6  0  0  0
M  END
>  <Name>
Triamcinolone

>  <CAS>
124-94-7

>  <Formula>
C21H27FO6

>  <MolWt>
394.44 

>  <Bioactivity>
A glucocorticoid given, as the free alcohol or in esterified form, orally, intramuscularly, by local injection, by inhalation, or applied topically in the management of various disorders in which corticosteroids are indicated. (From Martindale, The Extra Pharmacopoeia, 30th ed, p739)

>  <Pathways>
Neuroscience

>  <Target>
COX inhibitor;Glucocorticoid Receptor antagonist

>  <Receptor>
Prostaglandin G/H synthase ;Glucocorticoid receptor

>  <Reference>
1. Schaefer EC, et al. Am J Vet Res. 2009 Dec;70(12):1494-501.

$$$$
51037-30-0
  Mrv1561503291623562D          

 11 11  0  0  0  0            999 V2000
    0.7145   -0.4125    0.0000 C   0  0  0  0  0  0  0  0  0  0  0  0
    0.0000   -0.0000    0.0000 C   0  0  0  0  0  0  0  0  0  0  0  0
   -0.0000    0.8250    0.0000 N   0  3  0  0  0  0  0  0  0  0  0  0
    0.7145    1.2375    0.0000 C   0  0  0  0  0  0  0  0  0  0  0  0
    1.4289    0.8250    0.0000 C   0  0  0  0  0  0  0  0  0  0  0  0
    1.4289    0.0000    0.0000 N   0  0  0  0  0  0  0  0  0  0  0  0
    0.7145    2.0625    0.0000 C   0  0  0  0  0  0  0  0  0  0  0  0
   -0.7145    1.2375    0.0000 O   0  5  0  0  0  0  0  0  0  0  0  0
   -0.7145   -0.4125    0.0000 C   0  0  0  0  0  0  0  0  0  0  0  0
   -0.7145   -1.2375    0.0000 O   0  0  0  0  0  0  0  0  0  0  0  0
   -1.4289   -0.0000    0.0000 O   0  0  0  0  0  0  0  0  0  0  0  0
  1  2  2  0  0  0  0
  2  3  1  0  0  0  0
  3  4  2  0  0  0  0
  4  5  1  0  0  0  0
  5  6  2  0  0  0  0
  1  6  1  0  0  0  0
  4  7  1  0  0  0  0
  3  8  1  0  0  0  0
  2  9  1  0  0  0  0
  9 10  1  0  0  0  0
  9 11  2  0  0  0  0
M  CHG  2   3   1   8  -1
M  END
>  <Name>
Acipimox

>  <CAS>
51037-30-0

>  <Formula>
C6H6N2O3

>  <MolWt>
154.13 

>  <Bioactivity>
Acipimox is a niacin derivative used as a hypolipidemic agent. It is used in low doses and may have less marked adverse effects, although it is unclear whether the recommended dose is as effective as are standard doses of nicotinic acid. Acipimox inhibits the production of triglycerides by the liver and the secretion of VLDL, which leads indirectly to a modest reduction in LDL and increase in HDL. Long-term administration is associated with reduced mortality, but unwanted effects limit its clinical use. 

>  <Pathways>
Others

>  <Target>
Others

>  <Receptor>
triglycerides production

>  <Reference>
1. Jin F, et al. Biochem Biophys Res Commun. 2012 Nov 9; 428(1):86-92. 

$$$$
536-33-4
  Mrv1561503291623562D          

 11 11  0  0  0  0            999 V2000
    1.4289    0.8250    0.0000 C   0  0  0  0  0  0  0  0  0  0  0  0
    1.4289    0.0000    0.0000 C   0  0  0  0  0  0  0  0  0  0  0  0
    0.7145   -0.4125    0.0000 C   0  0  0  0  0  0  0  0  0  0  0  0
   -0.0000    0.0000    0.0000 C   0  0  0  0  0  0  0  0  0  0  0  0
   -0.0000    0.8250    0.0000 N   0  0  0  0  0  0  0  0  0  0  0  0
    0.7145    1.2375    0.0000 C   0  0  0  0  0  0  0  0  0  0  0  0
    0.7145    2.0625    0.0000 C   0  0  0  0  0  0  0  0  0  0  0  0
    0.0000    2.4750    0.0000 C   0  0  0  0  0  0  0  0  0  0  0  0
    2.1434   -0.4125    0.0000 C   0  0  0  0  0  0  0  0  0  0  0  0
    2.8579    0.0000    0.0000 N   0  0  0  0  0  0  0  0  0  0  0  0
    2.1434   -1.2375    0.0000 S   0  0  0  0  0  0  0  0  0  0  0  0
  1  2  2  0  0  0  0
  2  3  1  0  0  0  0
  3  4  2  0  0  0  0
  4  5  1  0  0  0  0
  5  6  2  0  0  0  0
  1  6  1  0  0  0  0
  6  7  1  0  0  0  0
  7  8  1  0  0  0  0
  2  9  1  0  0  0  0
  9 10  1  0  0  0  0
  9 11  2  0  0  0  0
M  END
>  <Name>
Ethinamide

>  <CAS>
536-33-4

>  <Formula>
C8H10N2S

>  <MolWt>
166.25 

>  <Bioactivity>
A second-line antitubercular agent that inhibits mycolic acid synthesis.

>  <Pathways>
Enzyme

>  <Target>
Catalase-peroxidase;Reductase

>  <Receptor>
Catalase-peroxidase;NAPDH

>  <Reference>
1. Morlock GP, et al. Antimicrob Agents Chemother. 2003 Dec;47(12):3799-805. 

$$$$
T0213
  Mrv1561503291623562D          

 19 21  0  0  0  0            999 V2000
    3.2789    1.2375    0.0000 C   0  0  0  0  0  0  0  0  0  0  0  0
    3.9934    0.8250    0.0000 C   0  0  0  0  0  0  0  0  0  0  0  0
    3.9934    0.0000    0.0000 C   0  0  0  0  0  0  0  0  0  0  0  0
    3.2789   -0.4125    0.0000 C   0  0  0  0  0  0  0  0  0  0  0  0
    2.5645   -0.0000    0.0000 C   0  0  0  0  0  0  0  0  0  0  0  0
    2.5645    0.8250    0.0000 C   0  0  0  0  0  0  0  0  0  0  0  0
    1.7798    1.0799    0.0000 C   0  0  0  0  0  0  0  0  0  0  0  0
    1.2949    0.4125    0.0000 N   0  0  0  0  0  0  0  0  0  0  0  0
    0.4699    0.4125    0.0000 C   0  0  0  0  0  0  0  0  0  0  0  0
    0.0574   -0.3020    0.0000 C   0  0  0  0  0  0  0  0  0  0  0  0
   -0.7676   -0.3020    0.0000 N   0  0  0  0  0  0  0  0  0  0  0  0
   -1.1801    0.4125    0.0000 C   0  0  0  0  0  0  0  0  0  0  0  0
   -2.0051    0.4125    0.0000 O   0  0  0  0  0  0  0  0  0  0  0  0
   -0.7676    1.1270    0.0000 C   0  0  0  0  0  0  0  0  0  0  0  0
    0.0574    1.1270    0.0000 C   0  0  0  0  0  0  0  0  0  0  0  0
    0.4699   -1.0164    0.0000 O   0  0  0  0  0  0  0  0  0  0  0  0
    1.7798   -0.2549    0.0000 C   0  0  0  0  0  0  0  0  0  0  0  0
    1.5249   -1.0396    0.0000 O   0  0  0  0  0  0  0  0  0  0  0  0
    1.5249    1.8646    0.0000 O   0  0  0  0  0  0  0  0  0  0  0  0
  1  2  2  0  0  0  0
  2  3  1  0  0  0  0
  3  4  2  0  0  0  0
  4  5  1  0  0  0  0
  5  6  2  0  0  0  0
  1  6  1  0  0  0  0
  6  7  1  0  0  0  0
  7  8  1  0  0  0  0
  8  9  1  0  0  0  0
  9 10  1  0  0  0  0
 10 11  1  0  0  0  0
 11 12  1  0  0  0  0
 12 13  2  0  0  0  0
 12 14  1  0  0  0  0
 14 15  1  0  0  0  0
  9 15  1  0  0  0  0
 10 16  2  0  0  0  0
  8 17  1  0  0  0  0
  5 17  1  0  0  0  0
 17 18  2  0  0  0  0
  7 19  2  0  0  0  0
M  END
>  <Name>
Thalidomide

>  <CAS>
50-35-1

>  <Formula>
C13H10N2O4

>  <MolWt>
258.23 

>  <Bioactivity>
A piperidinyl isoindole originally introduced as a non-barbiturate hypnotic, but withdrawn from the market due to teratogenic effects. It has been reintroduced and used for a number of immunological and inflammatory disorders. Thalidomide displays immunosuppressive and anti-angiogenic activity. It inhibits release of TUMOR NECROSIS FACTOR-ALPHA from monocytes, and modulates other cytokine action. 

>  <Pathways>
Neuroscience;Immunology/Inflammation

>  <Target>
NF-?B inhibitor;TNF inhibitor;COX;FGFR inhibitor

>  <Receptor>
NF-?B;TNF;Protein cereblon;?1-acid glycoprotein;Prostaglandin G/H synthase 2;FGFR2

>  <Reference>
1. Zhu YX, et al. Leuk Lymphoma. 2013 Apr;54(4):683-7. 

$$$$
T1532
  Mrv1561503291623562D          

 16 17  0  0  1  0            999 V2000
    2.5330   -0.6552    0.0000 C   0  0  1  0  0  0  0  0  0  0  0  0
    3.2004   -1.1401    0.0000 N   0  0  0  0  0  0  0  0  0  0  0  0
    3.9850   -0.8852    0.0000 C   0  0  0  0  0  0  0  0  0  0  0  0
    4.5981   -1.4372    0.0000 C   0  0  1  0  0  0  0  0  0  0  0  0
    5.4051   -1.2657    0.0000 N   0  0  0  0  0  0  0  0  0  0  0  0
    5.8176   -1.9802    0.0000 C   0  0  0  0  0  0  0  0  0  0  0  0
    6.6381   -2.0664    0.0000 O   0  0  0  0  0  0  0  0  0  0  0  0
    5.2656   -2.5933    0.0000 C   0  0  0  0  0  0  0  0  0  0  0  0
    4.5119   -2.2577    0.0000 C   0  0  0  0  0  0  0  0  0  0  0  0
    4.1566   -0.0782    0.0000 O   0  0  0  0  0  0  0  0  0  0  0  0
    2.9455   -1.9248    0.0000 C   0  0  0  0  0  0  0  0  0  0  0  0
    2.1205   -1.9248    0.0000 S   0  0  0  0  0  0  0  0  0  0  0  0
    1.8655   -1.1401    0.0000 C   0  0  0  0  0  0  0  0  0  0  0  0
    2.5330    0.1698    0.0000 C   0  0  0  0  0  0  0  0  0  0  0  0
    1.8185    0.5823    0.0000 O   0  0  0  0  0  0  0  0  0  0  0  0
    3.2475    0.5823    0.0000 O   0  0  0  0  0  0  0  0  0  0  0  0
  1  2  1  0  0  0  0
  2  3  1  0  0  0  0
  4  3  1  1  0  0  0
  4  5  1  0  0  0  0
  5  6  1  0  0  0  0
  6  7  2  0  0  0  0
  6  8  1  0  0  0  0
  8  9  1  0  0  0  0
  4  9  1  0  0  0  0
  3 10  2  0  0  0  0
  2 11  1  0  0  0  0
 11 12  1  0  0  0  0
 12 13  1  0  0  0  0
  1 13  1  0  0  0  0
  1 14  1  1  0  0  0
 14 15  1  0  0  0  0
 14 16  2  0  0  0  0
M  END
>  <Name>
Pidotimod

>  <CAS>
121808-62-6

>  <Formula>
C9H12N2O4S

>  <MolWt>
244.27 

>  <Bioactivity>
Pidotimod is an immunostimulant.

>  <Pathways>
Immunology/Inflammation

>  <Target>
Immunologic Factors

>  <Receptor>
Others

>  <Reference>
1. Clemente E, et al. Arzneimittelforschung, 1994, 44(12A), 1490-1494.

$$$$
555-30-6
  Mrv1561503291623562D          

 15 15  0  0  1  0            999 V2000
   -0.0000    2.4750    0.0000 C   0  0  1  0  0  0  0  0  0  0  0  0
   -0.7145    2.8875    0.0000 C   0  0  0  0  0  0  0  0  0  0  0  0
   -0.7145    3.7125    0.0000 O   0  0  0  0  0  0  0  0  0  0  0  0
   -1.4289    2.4750    0.0000 O   0  0  0  0  0  0  0  0  0  0  0  0
    0.7145    2.0625    0.0000 C   0  0  0  0  0  0  0  0  0  0  0  0
    0.7145    1.2375    0.0000 C   0  0  0  0  0  0  0  0  0  0  0  0
    1.4289    0.8250    0.0000 C   0  0  0  0  0  0  0  0  0  0  0  0
    1.4289    0.0000    0.0000 C   0  0  0  0  0  0  0  0  0  0  0  0
    0.7145   -0.4125    0.0000 C   0  0  0  0  0  0  0  0  0  0  0  0
    0.0000   -0.0000    0.0000 C   0  0  0  0  0  0  0  0  0  0  0  0
    0.0000    0.8250    0.0000 C   0  0  0  0  0  0  0  0  0  0  0  0
   -0.7145   -0.4125    0.0000 O   0  0  0  0  0  0  0  0  0  0  0  0
    0.7145   -1.2375    0.0000 O   0  0  0  0  0  0  0  0  0  0  0  0
   -0.4125    1.7605    0.0000 C   0  0  0  0  0  0  0  0  0  0  0  0
    0.4125    3.1895    0.0000 N   0  0  0  0  0  0  0  0  0  0  0  0
  1  2  1  0  0  0  0
  2  3  1  0  0  0  0
  2  4  2  0  0  0  0
  1  5  1  0  0  0  0
  5  6  1  0  0  0  0
  6  7  2  0  0  0  0
  7  8  1  0  0  0  0
  8  9  2  0  0  0  0
  9 10  1  0  0  0  0
 10 11  2  0  0  0  0
  6 11  1  0  0  0  0
 10 12  1  0  0  0  0
  9 13  1  0  0  0  0
  1 14  1  6  0  0  0
  1 15  1  6  0  0  0
M  END
>  <Name>
Methyldopa

>  <CAS>
555-30-6

>  <Formula>
C10H13NO4

>  <MolWt>
211.21 

>  <Bioactivity>
Methyldopa is an alpha-adrenergic agonist (selective for ?2-adrenergic receptors) psychoactive drug used as a sympatholytic or antihypertensive.

>  <Pathways>
GPCR/G Protein

>  <Target>
Adrenergic Receptor

>  <Receptor>
Adrenergic Receptor

>  <Reference>
1. Head GA. Ann N Y Acad Sci. 1999 Jun 21;881:279-86.

$$$$
97240-79-4
  Mrv1561503291623562D          

 22 24  0  0  1  0            999 V2000
    2.0088    2.1641    0.0000 C   0  0  1  0  0  0  0  0  0  0  0  0
    1.5963    1.4496    0.0000 C   0  0  2  0  0  0  0  0  0  0  0  0
    0.7713    1.4496    0.0000 C   0  0  1  0  0  0  0  0  0  0  0  0
    0.3588    2.1641    0.0000 C   0  0  2  0  0  0  0  0  0  0  0  0
   -0.4482    1.9925    0.0000 O   0  0  0  0  0  0  0  0  0  0  0  0
   -0.5344    1.1720    0.0000 C   0  0  0  0  0  0  0  0  0  0  0  0
    0.2193    0.8365    0.0000 O   0  0  0  0  0  0  0  0  0  0  0  0
   -1.3594    1.1634    0.0000 C   0  0  0  0  0  0  0  0  0  0  0  0
   -0.9544    0.4619    0.0000 C   0  0  0  0  0  0  0  0  0  0  0  0
    0.7713    2.8785    0.0000 C   0  0  0  0  0  0  0  0  0  0  0  0
    1.5963    2.8785    0.0000 O   0  0  0  0  0  0  0  0  0  0  0  0
    2.1483    0.8365    0.0000 O   0  0  0  0  0  0  0  0  0  0  0  0
    2.9020    1.1720    0.0000 C   0  0  0  0  0  0  0  0  0  0  0  0
    2.8158    1.9925    0.0000 O   0  0  0  0  0  0  0  0  0  0  0  0
    3.3220    0.4619    0.0000 C   0  0  0  0  0  0  0  0  0  0  0  0
    3.7270    1.1634    0.0000 C   0  0  0  0  0  0  0  0  0  0  0  0
    2.4937    2.8315    0.0000 C   0  0  0  0  0  0  0  0  0  0  0  0
    3.3142    2.7453    0.0000 O   0  0  0  0  0  0  0  0  0  0  0  0
    3.7991    3.4127    0.0000 S   0  0  0  0  0  0  0  0  0  0  0  0
    4.2840    4.0801    0.0000 N   0  0  0  0  0  0  0  0  0  0  0  0
    4.4666    2.9278    0.0000 O   0  0  0  0  0  0  0  0  0  0  0  0
    3.1317    3.8976    0.0000 O   0  0  0  0  0  0  0  0  0  0  0  0
  1  2  1  0  0  0  0
  2  3  1  0  0  0  0
  3  4  1  0  0  0  0
  4  5  1  6  0  0  0
  5  6  1  0  0  0  0
  6  7  1  0  0  0  0
  3  7  1  6  0  0  0
  6  8  1  0  0  0  0
  6  9  1  0  0  0  0
  4 10  1  0  0  0  0
 10 11  1  0  0  0  0
  1 11  1  0  0  0  0
  2 12  1  1  0  0  0
 12 13  1  0  0  0  0
 13 14  1  0  0  0  0
  1 14  1  0  0  0  0
 13 15  1  0  0  0  0
 13 16  1  0  0  0  0
  1 17  1  6  0  0  0
 17 18  1  0  0  0  0
 18 19  1  0  0  0  0
 19 20  1  0  0  0  0
 19 21  2  0  0  0  0
 19 22  2  0  0  0  0
M  END
>  <Name>
Topiramate

>  <CAS>
97240-79-4

>  <Formula>
C12H21NO8S

>  <MolWt>
339.36 

>  <Bioactivity>
Topiramate (brand name Topamax) is an anticonvulsant drug produced by Ortho-McNeil Neurologics, a division of Johnson & Johnson. It is used to treat epilepsy in both children and adults. In children it is also indicated for treatment of Lennox-Gastaut syndrome (a disorder that causes seizures and developmental delays). It is also Food and Drug Administration (FDA) approved for, and now most frequently prescribed for, the prevention of migraines. . A combination product containing phentermine and topiramate extended-release called QSYMIA® is indicated for the management of obesity. On August 2013, an extended released formulation, marketed as Trokendi XR has been approved for the management of partial onset, tonic-clonic, and Lennox-Gastaut Syndrome seizures.  

>  <Pathways>
Neuroscience

>  <Target>
GABAR antagonist;GluR antagonist; Carbonic anhydrase inhibitor

>  <Receptor>
GABAR;GluR5;Carbonic anhydrase

>  <Reference>
1. Nowakowska E, et al. Arzneimittelforschung. 2009;59(10):487-92. 

$$$$
14222-60-7
  Mrv1561503291623562D          

 12 12  0  0  0  0            999 V2000
    1.4289    0.8250    0.0000 C   0  0  0  0  0  0  0  0  0  0  0  0
    1.4289    0.0000    0.0000 C   0  0  0  0  0  0  0  0  0  0  0  0
    0.7145   -0.4125    0.0000 N   0  0  0  0  0  0  0  0  0  0  0  0
   -0.0000    0.0000    0.0000 C   0  0  0  0  0  0  0  0  0  0  0  0
   -0.0000    0.8250    0.0000 C   0  0  0  0  0  0  0  0  0  0  0  0
    0.7145    1.2375    0.0000 C   0  0  0  0  0  0  0  0  0  0  0  0
    0.7145    2.0625    0.0000 C   0  0  0  0  0  0  0  0  0  0  0  0
    0.0000    2.4750    0.0000 N   0  0  0  0  0  0  0  0  0  0  0  0
    1.4289    2.4750    0.0000 S   0  0  0  0  0  0  0  0  0  0  0  0
    2.1434   -0.4125    0.0000 C   0  0  0  0  0  0  0  0  0  0  0  0
    2.1434   -1.2375    0.0000 C   0  0  0  0  0  0  0  0  0  0  0  0
    2.8579   -1.6500    0.0000 C   0  0  0  0  0  0  0  0  0  0  0  0
  1  2  2  0  0  0  0
  2  3  1  0  0  0  0
  3  4  2  0  0  0  0
  4  5  1  0  0  0  0
  5  6  2  0  0  0  0
  1  6  1  0  0  0  0
  6  7  1  0  0  0  0
  7  8  1  0  0  0  0
  7  9  2  0  0  0  0
  2 10  1  0  0  0  0
 10 11  1  0  0  0  0
 11 12  1  0  0  0  0
M  END
>  <Name>
Protionamide

>  <CAS>
14222-60-7

>  <Formula>
C9H12N2S

>  <MolWt>
180.27 

>  <Bioactivity>
Antitubercular agent similar in action and side effects to ETHIONAMIDE. It is used mostly in combination with other agents.

>  <Pathways>
Others

>  <Target>
Others

>  <Receptor>
Others

>  <Reference>
1. Projahn M, et al. Antimicrob Agents Chemother. 2011 Sep;55(9):4408-11. 

$$$$
5451-09-2
  Mrv1561503291623562D          

 11  8  0  0  0  0            999 V2000
    0.4125    0.0000    0.0000 H   0  3  0  0  0  0  0  0  0  0  0  0
    4.4416   -0.2292    0.0000 C   0  0  0  0  0  0  0  0  0  0  0  0
    3.7272    0.1833    0.0000 C   0  0  0  0  0  0  0  0  0  0  0  0
    3.0127   -0.2292    0.0000 C   0  0  0  0  0  0  0  0  0  0  0  0
    2.2982    0.1833    0.0000 O   0  0  0  0  0  0  0  0  0  0  0  0
    3.0127   -1.0542    0.0000 O   0  0  0  0  0  0  0  0  0  0  0  0
    5.1561    0.1833    0.0000 C   0  0  0  0  0  0  0  0  0  0  0  0
    5.1561    1.0083    0.0000 O   0  0  0  0  0  0  0  0  0  0  0  0
    5.8706   -0.2292    0.0000 C   0  0  0  0  0  0  0  0  0  0  0  0
    6.5850    0.1833    0.0000 N   0  0  0  0  0  0  0  0  0  0  0  0
   -0.4125    0.0000    0.0000 Cl  0  5  0  0  0  0  0  0  0  0  0  0
  2  3  1  0  0  0  0
  3  4  1  0  0  0  0
  4  5  1  0  0  0  0
  4  6  2  0  0  0  0
  2  7  1  0  0  0  0
  7  8  2  0  0  0  0
  7  9  1  0  0  0  0
  9 10  1  0  0  0  0
M  CHG  2   1   1  11  -1
M  END
>  <Name>
ALA HCl

>  <CAS>
5451-09-2

>  <Formula>
C5H10ClNO3

>  <MolWt>
167.59 

>  <Bioactivity>
5-Aminolevulinic acid HCl is an intermediate in heme biosynthesis in the body and the universal precursor of tetrapyrroles.

>  <Pathways>
Amino Acids & Building Blocks

>  <Target>
Amino Acids and Derivatives

>  <Receptor>
Aminolevulinic acid dehydratase

>  <Reference>
1. Vajpayee P, et al. Chemosphere. 2000 Oct;41(7):1075-82. 

$$$$
22161-81-5
  Mrv1561503291623562D          

 19 20  0  0  1  0            999 V2000
   -0.7145   -0.4125    0.0000 C   0  0  1  0  0  0  0  0  0  0  0  0
   -0.7145   -1.2375    0.0000 C   0  0  0  0  0  0  0  0  0  0  0  0
   -0.0000   -1.6500    0.0000 C   0  0  0  0  0  0  0  0  0  0  0  0
   -0.0000   -2.4750    0.0000 C   0  0  0  0  0  0  0  0  0  0  0  0
   -0.7145   -2.8875    0.0000 C   0  0  0  0  0  0  0  0  0  0  0  0
   -1.4289   -2.4750    0.0000 C   0  0  0  0  0  0  0  0  0  0  0  0
   -1.4289   -1.6500    0.0000 C   0  0  0  0  0  0  0  0  0  0  0  0
   -2.1434   -2.8875    0.0000 C   0  0  0  0  0  0  0  0  0  0  0  0
   -2.1434   -3.7125    0.0000 C   0  0  0  0  0  0  0  0  0  0  0  0
   -1.4289   -4.1250    0.0000 C   0  0  0  0  0  0  0  0  0  0  0  0
   -1.4289   -4.9500    0.0000 C   0  0  0  0  0  0  0  0  0  0  0  0
   -2.1434   -5.3625    0.0000 C   0  0  0  0  0  0  0  0  0  0  0  0
   -2.8579   -4.9500    0.0000 C   0  0  0  0  0  0  0  0  0  0  0  0
   -2.8579   -4.1250    0.0000 C   0  0  0  0  0  0  0  0  0  0  0  0
   -2.8579   -2.4750    0.0000 O   0  0  0  0  0  0  0  0  0  0  0  0
   -0.0000   -0.0000    0.0000 C   0  0  0  0  0  0  0  0  0  0  0  0
   -0.0000    0.8250    0.0000 O   0  0  0  0  0  0  0  0  0  0  0  0
    0.7145   -0.4125    0.0000 O   0  0  0  0  0  0  0  0  0  0  0  0
   -1.4289   -0.0000    0.0000 C   0  0  0  0  0  0  0  0  0  0  0  0
  1  2  1  0  0  0  0
  2  3  2  0  0  0  0
  3  4  1  0  0  0  0
  4  5  2  0  0  0  0
  5  6  1  0  0  0  0
  6  7  2  0  0  0  0
  2  7  1  0  0  0  0
  6  8  1  0  0  0  0
  8  9  1  0  0  0  0
  9 10  2  0  0  0  0
 10 11  1  0  0  0  0
 11 12  2  0  0  0  0
 12 13  1  0  0  0  0
 13 14  2  0  0  0  0
  9 14  1  0  0  0  0
  8 15  2  0  0  0  0
  1 16  1  0  0  0  0
 16 17  1  0  0  0  0
 16 18  2  0  0  0  0
  1 19  1  6  0  0  0
M  END
>  <Name>
(S)-(+)-Ketoprofen

>  <CAS>
22161-81-5

>  <Formula>
C16H14O3

>  <MolWt>
254.30 

>  <Bioactivity>
Ketoprofen, a propionic acid derivative, is a nonsteroidal anti-inflammatory agent (NSAIA) with analgesic and antipyretic properties.

>  <Pathways>
Neuroscience

>  <Target>
COX inhibitor;MRP inhibitor

>  <Receptor>
COX1, COX2;MRAP 4

>  <Reference>
1. Pelligand L, et al. J Vet Pharmacol Ther. 2014 Aug;37(4):354-66. 

$$$$
1786-81-8
  Mrv1561503291623562D          

 18 16  0  0  0  0            999 V2000
    0.4125    0.0000    0.0000 H   0  3  0  0  0  0  0  0  0  0  0  0
    3.7272    0.8766    0.0000 C   0  0  0  0  0  0  0  0  0  0  0  0
    3.7272    0.0516    0.0000 C   0  0  0  0  0  0  0  0  0  0  0  0
    4.4416   -0.3609    0.0000 N   0  0  0  0  0  0  0  0  0  0  0  0
    5.1561    0.0516    0.0000 C   0  0  0  0  0  0  0  0  0  0  0  0
    5.1561    0.8766    0.0000 O   0  0  0  0  0  0  0  0  0  0  0  0
    5.8706   -0.3609    0.0000 C   0  0  0  0  0  0  0  0  0  0  0  0
    6.5850    0.0516    0.0000 N   0  0  0  0  0  0  0  0  0  0  0  0
    7.2995   -0.3609    0.0000 C   0  0  0  0  0  0  0  0  0  0  0  0
    8.0140    0.0516    0.0000 C   0  0  0  0  0  0  0  0  0  0  0  0
    8.7285   -0.3609    0.0000 C   0  0  0  0  0  0  0  0  0  0  0  0
    5.8706   -1.1859    0.0000 C   0  0  0  0  0  0  0  0  0  0  0  0
    3.0127   -0.3609    0.0000 C   0  0  0  0  0  0  0  0  0  0  0  0
    2.2982    0.0516    0.0000 C   0  0  0  0  0  0  0  0  0  0  0  0
    2.2982    0.8766    0.0000 C   0  0  0  0  0  0  0  0  0  0  0  0
    3.0127    1.2891    0.0000 C   0  0  0  0  0  0  0  0  0  0  0  0
    3.0127   -1.1859    0.0000 C   0  0  0  0  0  0  0  0  0  0  0  0
   -0.4125    0.0000    0.0000 Cl  0  5  0  0  0  0  0  0  0  0  0  0
  2  3  2  0  0  0  0
  3  4  1  0  0  0  0
  4  5  1  0  0  0  0
  5  6  2  0  0  0  0
  5  7  1  0  0  0  0
  7  8  1  0  0  0  0
  8  9  1  0  0  0  0
  9 10  1  0  0  0  0
 10 11  1  0  0  0  0
  7 12  1  0  0  0  0
  3 13  1  0  0  0  0
 13 14  2  0  0  0  0
 14 15  1  0  0  0  0
 15 16  2  0  0  0  0
  2 16  1  0  0  0  0
 13 17  1  0  0  0  0
M  CHG  2   1   1  18  -1
M  END
>  <Name>
Propitocaine HCl

>  <CAS>
1786-81-8

>  <Formula>
C13H21ClN2O

>  <MolWt>
256.77 

>  <Bioactivity>
A local anesthetic that is similar pharmacologically to LIDOCAINE. Currently, it is used most often for infiltration anesthesia in dentistry.

>  <Pathways>
Membrane Transporter/Ion Channel

>  <Target>
Sodium Channel inhibitor

>  <Receptor>
Sodium Channel

>  <Reference>
1. Dimri M, et al. Tokai J Exp Clin Med. 2015 Mar 20;40(1):8-15.

$$$$
T1629
  Mrv1561503291623562D          

 63 68  0  0  1  0            999 V2000
   12.0754    1.9117    0.0000 C   0  0  2  0  0  0  0  0  0  0  0  0
   12.3897    1.1411    0.0000 C   0  0  2  0  0  0  0  0  0  0  0  0
   13.2383    1.2709    0.0000 O   0  0  0  0  0  0  0  0  0  0  0  0
   12.4929    0.3163    0.0000 C   0  0  1  0  0  0  0  0  0  0  0  0
   12.3788   -0.5058    0.0000 C   0  0  1  0  0  0  0  0  0  0  0  0
   13.2081   -0.7448    0.0000 O   0  0  0  0  0  0  0  0  0  0  0  0
   12.0562   -1.2701    0.0000 C   0  0  1  0  0  0  0  0  0  0  0  0
   12.8643   -1.6382    0.0000 C   0  0  0  0  0  0  0  0  0  0  0  0
   11.5476   -1.9245    0.0000 C   0  0  0  0  0  0  0  0  0  0  0  0
   10.8882   -2.4250    0.0000 C   0  0  0  0  0  0  0  0  0  0  0  0
   10.1221   -2.7389    0.0000 C   0  0  0  0  0  0  0  0  0  0  0  0
    9.3009   -2.8534    0.0000 C   0  0  0  0  0  0  0  0  0  0  0  0
    8.4013   -2.8586    0.0000 C   0  0  0  0  0  0  0  0  0  0  0  0
    7.9076   -3.6064    0.0000 O   0  0  0  0  0  0  0  0  0  0  0  0
    7.6734   -2.5144    0.0000 N   0  0  0  0  0  0  0  0  0  0  0  0
    7.0982   -1.8885    0.0000 C   0  0  0  0  0  0  0  0  0  0  0  0
    6.3418   -1.5158    0.0000 C   0  0  0  0  0  0  0  0  0  0  0  0
    5.6953   -2.0765    0.0000 O   0  0  0  0  0  0  0  0  0  0  0  0
    6.2642   -0.6720    0.0000 C   0  0  0  0  0  0  0  0  0  0  0  0
    6.9559   -0.1952    0.0000 C   0  0  0  0  0  0  0  0  0  0  0  0
    7.6977   -0.5667    0.0000 C   0  0  0  0  0  0  0  0  0  0  0  0
    8.3707   -0.0423    0.0000 O   0  0  0  0  0  0  0  0  0  0  0  0
    7.7680   -1.3856    0.0000 C   0  0  0  0  0  0  0  0  0  0  0  0
    8.5852   -1.5714    0.0000 C   0  0  0  0  0  0  0  0  0  0  0  0
    8.7362   -2.4154    0.0000 N   0  0  0  0  0  0  0  0  0  0  0  0
    9.6541   -2.4838    0.0000 N   0  0  0  0  0  0  0  0  0  0  0  0
   10.2302   -1.8933    0.0000 C   0  0  0  0  0  0  0  0  0  0  0  0
   11.0297   -2.0970    0.0000 C   0  0  0  0  0  0  0  0  0  0  0  0
   11.2530   -2.8912    0.0000 N   0  0  0  0  0  0  0  0  0  0  0  0
   12.0525   -3.0949    0.0000 C   0  0  0  0  0  0  0  0  0  0  0  0
   12.6872   -2.5679    0.0000 C   0  0  0  0  0  0  0  0  0  0  0  0
   13.3845   -3.0086    0.0000 C   0  0  0  0  0  0  0  0  0  0  0  0
   13.1809   -3.8081    0.0000 C   0  0  0  0  0  0  0  0  0  0  0  0
   12.3576   -3.8614    0.0000 C   0  0  0  0  0  0  0  0  0  0  0  0
   10.6769   -3.4817    0.0000 C   0  0  0  0  0  0  0  0  0  0  0  0
    9.8774   -3.2780    0.0000 C   0  0  0  0  0  0  0  0  0  0  0  0
    6.9157    0.6577    0.0000 C   0  0  0  0  0  0  0  0  0  0  0  0
    6.1803    1.0376    0.0000 C   0  0  0  0  0  0  0  0  0  0  0  0
    6.3331    1.8793    0.0000 O   0  0  0  0  0  0  0  0  0  0  0  0
    7.1724    2.0306    0.0000 C   0  0  2  0  0  0  0  0  0  0  0  0
    7.7217    2.7045    0.0000 O   0  0  0  0  0  0  0  0  0  0  0  0
    8.4049    3.2332    0.0000 C   0  0  0  0  0  0  0  0  0  0  0  0
    9.2245    3.4467    0.0000 C   0  0  0  0  0  0  0  0  0  0  0  0
   10.0650    3.3888    0.0000 C   0  0  2  0  0  0  0  0  0  0  0  0
   10.0182    4.2852    0.0000 O   0  0  0  0  0  0  0  0  0  0  0  0
    9.6187    5.0628    0.0000 C   0  0  0  0  0  0  0  0  0  0  0  0
   10.8574    3.0992    0.0000 C   0  0  2  0  0  0  0  0  0  0  0  0
   11.5586    2.5824    0.0000 C   0  0  1  0  0  0  0  0  0  0  0  0
   12.1205    3.3210    0.0000 O   0  0  0  0  0  0  0  0  0  0  0  0
   12.3566    4.2297    0.0000 C   0  0  0  0  0  0  0  0  0  0  0  0
   12.1914    5.1036    0.0000 O   0  0  0  0  0  0  0  0  0  0  0  0
   13.1190    4.6726    0.0000 C   0  0  0  0  0  0  0  0  0  0  0  0
   11.1986    3.8715    0.0000 C   0  0  0  0  0  0  0  0  0  0  0  0
    7.5197    1.2595    0.0000 C   0  0  0  0  0  0  0  0  0  0  0  0
    8.3544    1.4244    0.0000 O   0  0  0  0  0  0  0  0  0  0  0  0
    6.5873    2.7246    0.0000 C   0  0  0  0  0  0  0  0  0  0  0  0
    5.4862    0.5520    0.0000 C   0  0  0  0  0  0  0  0  0  0  0  0
    5.5240   -0.2776    0.0000 C   0  0  0  0  0  0  0  0  0  0  0  0
    4.6890   -0.5656    0.0000 O   0  0  0  0  0  0  0  0  0  0  0  0
    4.6492    0.8241    0.0000 C   0  0  0  0  0  0  0  0  0  0  0  0
    9.4030   -3.8939    0.0000 C   0  0  0  0  0  0  0  0  0  0  0  0
   13.3852    0.2334    0.0000 C   0  0  0  0  0  0  0  0  0  0  0  0
   12.9104    2.2177    0.0000 C   0  0  0  0  0  0  0  0  0  0  0  0
  1  2  1  0  0  0  0
  2  3  1  6  0  0  0
  2  4  1  0  0  0  0
  4  5  1  0  0  0  0
  5  6  1  1  0  0  0
  5  7  1  0  0  0  0
  7  8  1  1  0  0  0
  7  9  1  0  0  0  0
  9 10  2  0  0  0  0
 10 11  1  0  0  0  0
 11 12  2  0  0  0  0
 12 13  1  0  0  0  0
 13 14  2  0  0  0  0
 13 15  1  0  0  0  0
 15 16  1  0  0  0  0
 16 17  2  0  0  0  0
 17 18  1  0  0  0  0
 17 19  1  0  0  0  0
 19 20  2  0  0  0  0
 20 21  1  0  0  0  0
 21 22  2  0  0  0  0
 21 23  1  0  0  0  0
 16 23  1  0  0  0  0
 23 24  2  0  0  0  0
 24 25  1  0  0  0  0
 25 26  1  0  0  0  0
 26 27  1  0  0  0  0
 27 28  1  0  0  0  0
 28 29  1  0  0  0  0
 29 30  1  0  0  0  0
 30 31  1  0  0  0  0
 31 32  1  0  0  0  0
 32 33  1  0  0  0  0
 33 34  1  0  0  0  0
 30 34  1  0  0  0  0
 29 35  1  0  0  0  0
 35 36  1  0  0  0  0
 26 36  1  0  0  0  0
 20 37  1  0  0  0  0
 37 38  2  0  0  0  0
 38 39  1  0  0  0  0
 39 40  1  0  0  0  0
 40 41  1  0  0  0  0
 41 42  1  0  0  0  0
 42 43  2  0  0  0  0
 43 44  1  0  0  0  0
 44 45  1  6  0  0  0
 45 46  1  0  0  0  0
 44 47  1  0  0  0  0
 47 48  1  0  0  0  0
  1 48  1  0  0  0  0
 48 49  1  1  0  0  0
 49 50  1  0  0  0  0
 50 51  2  0  0  0  0
 50 52  1  0  0  0  0
 47 53  1  1  0  0  0
 40 54  1  0  0  0  0
 37 54  1  0  0  0  0
 54 55  2  0  0  0  0
 40 56  1  1  0  0  0
 38 57  1  0  0  0  0
 57 58  2  0  0  0  0
 19 58  1  0  0  0  0
 58 59  1  0  0  0  0
 57 60  1  0  0  0  0
 12 61  1  0  0  0  0
  4 62  1  6  0  0  0
  1 63  1  6  0  0  0
M  END
>  <Name>
Rifapentine

>  <CAS>
61379-65-5

>  <Formula>
C47H64N4O12

>  <MolWt>
877.03 

>  <Bioactivity>
Rifapentine is an antibiotic drug used in the treatment of tuberculosis. It inhibits DNA-dependent RNA polymerase activity in susceptible cells. Specifically, it interacts with bacterial RNA polymerase but does not inhibit the mammalian enzyme.  

>  <Pathways>
DNA Damage/DNA Repair;Microbiology & Virology

>  <Target>
Antibiotic; DNA/RNA Synthesis inhibitor

>  <Receptor>
RNA polymerase

>  <Reference>
1. Williams DL, et al. Antimicrob Agents Chemother. 1998 Jul;42(7):1853-7.

$$$$
13171-25-0
  Mrv1561503291623562D          

 23 20  0  0  0  0            999 V2000
    0.4125    0.0000    0.0000 H   0  3  0  0  0  0  0  0  0  0  0  0
    3.5946    0.0000    0.0000 H   0  3  0  0  0  0  0  0  0  0  0  0
   -0.9401   -4.5375    0.0000 C   0  0  0  0  0  0  0  0  0  0  0  0
   -0.9401   -5.3625    0.0000 N   0  0  0  0  0  0  0  0  0  0  0  0
   -0.2256   -5.7750    0.0000 C   0  0  0  0  0  0  0  0  0  0  0  0
   -0.2256   -6.6000    0.0000 C   0  0  0  0  0  0  0  0  0  0  0  0
   -0.9401   -7.0125    0.0000 N   0  0  0  0  0  0  0  0  0  0  0  0
   -1.6546   -6.6000    0.0000 C   0  0  0  0  0  0  0  0  0  0  0  0
   -1.6546   -5.7750    0.0000 C   0  0  0  0  0  0  0  0  0  0  0  0
   -0.2256   -4.1250    0.0000 C   0  0  0  0  0  0  0  0  0  0  0  0
   -0.2256   -3.3000    0.0000 C   0  0  0  0  0  0  0  0  0  0  0  0
   -0.9401   -2.8875    0.0000 O   0  0  0  0  0  0  0  0  0  0  0  0
   -0.9401   -2.0625    0.0000 C   0  0  0  0  0  0  0  0  0  0  0  0
    0.4888   -2.8875    0.0000 C   0  0  0  0  0  0  0  0  0  0  0  0
    1.2033   -3.3000    0.0000 C   0  0  0  0  0  0  0  0  0  0  0  0
    1.9178   -2.8875    0.0000 O   0  0  0  0  0  0  0  0  0  0  0  0
    1.9178   -2.0625    0.0000 C   0  0  0  0  0  0  0  0  0  0  0  0
    1.2033   -4.1250    0.0000 C   0  0  0  0  0  0  0  0  0  0  0  0
    0.4888   -4.5375    0.0000 C   0  0  0  0  0  0  0  0  0  0  0  0
    0.4888   -2.0625    0.0000 O   0  0  0  0  0  0  0  0  0  0  0  0
    1.2033   -1.6500    0.0000 C   0  0  0  0  0  0  0  0  0  0  0  0
   -0.4125    0.0000    0.0000 Cl  0  5  0  0  0  0  0  0  0  0  0  0
    2.7696    0.0000    0.0000 Cl  0  5  0  0  0  0  0  0  0  0  0  0
  3  4  1  0  0  0  0
  4  5  1  0  0  0  0
  5  6  1  0  0  0  0
  6  7  1  0  0  0  0
  7  8  1  0  0  0  0
  8  9  1  0  0  0  0
  4  9  1  0  0  0  0
  3 10  1  0  0  0  0
 10 11  2  0  0  0  0
 11 12  1  0  0  0  0
 12 13  1  0  0  0  0
 11 14  1  0  0  0  0
 14 15  2  0  0  0  0
 15 16  1  0  0  0  0
 16 17  1  0  0  0  0
 15 18  1  0  0  0  0
 18 19  2  0  0  0  0
 10 19  1  0  0  0  0
 14 20  1  0  0  0  0
 20 21  1  0  0  0  0
M  CHG  4   1   1   2   1  22  -1  23  -1
M  END
>  <Name>
Trimetazidine 2HCl

>  <CAS>
13171-25-0

>  <Formula>
C14H22N2O3.2HCl

>  <MolWt>
339.26 

>  <Bioactivity>
A vasodilator used in angina of effort or ischemic heart disease. 
rimetazidine is described as the first cytoprotective anti-ischemic agent developed and marketed by Laboratoires Servier (France). Trimetazidine is an anti-ischemic (anti-anginal) metabolic agent, which improves myocardial glucose utilization through inhibition of fatty acid metabolism, also known as fatty acid oxidation inhibitor. 

>  <Pathways>
Others

>  <Target>
Others

>  <Receptor>
LCKT(?-oxidation)

>  <Reference>
1. Kantor PF, et al. Circ Res. 2000 Mar 17;86(5):580-8.

$$$$
18010-40-7
  Mrv1561503291623562D          

 23 22  0  0  0  0            999 V2000
    0.4125    0.0000    0.0000 H   0  3  0  0  0  0  0  0  0  0  0  0
    7.7709    0.2161    0.0000 C   0  0  0  0  0  0  0  0  0  0  0  0
    7.7709   -0.6089    0.0000 C   0  0  0  0  0  0  0  0  0  0  0  0
    7.0565   -1.0214    0.0000 C   0  0  0  0  0  0  0  0  0  0  0  0
    6.3420   -0.6089    0.0000 C   0  0  0  0  0  0  0  0  0  0  0  0
    6.3420    0.2161    0.0000 C   0  0  0  0  0  0  0  0  0  0  0  0
    7.0565    0.6286    0.0000 C   0  0  0  0  0  0  0  0  0  0  0  0
    7.0565    1.4536    0.0000 C   0  0  0  0  0  0  0  0  0  0  0  0
    5.6275    0.6286    0.0000 N   0  0  0  0  0  0  0  0  0  0  0  0
    4.9131    0.2161    0.0000 C   0  0  0  0  0  0  0  0  0  0  0  0
    4.9131   -0.6089    0.0000 O   0  0  0  0  0  0  0  0  0  0  0  0
    4.1986    0.6286    0.0000 C   0  0  0  0  0  0  0  0  0  0  0  0
    3.4841    0.2161    0.0000 N   0  0  0  0  0  0  0  0  0  0  0  0
    2.7696    0.6286    0.0000 C   0  0  0  0  0  0  0  0  0  0  0  0
    2.7696    1.4536    0.0000 C   0  0  0  0  0  0  0  0  0  0  0  0
    3.4841    1.8661    0.0000 C   0  0  0  0  0  0  0  0  0  0  0  0
    4.1986    1.4536    0.0000 C   0  0  0  0  0  0  0  0  0  0  0  0
    3.4841   -0.6089    0.0000 C   0  0  0  0  0  0  0  0  0  0  0  0
    4.1986   -1.0214    0.0000 C   0  0  0  0  0  0  0  0  0  0  0  0
    4.1986   -1.8464    0.0000 C   0  0  0  0  0  0  0  0  0  0  0  0
    3.4841   -2.2589    0.0000 C   0  0  0  0  0  0  0  0  0  0  0  0
    5.6275   -1.0214    0.0000 C   0  0  0  0  0  0  0  0  0  0  0  0
   -0.4125    0.0000    0.0000 Cl  0  5  0  0  0  0  0  0  0  0  0  0
  2  3  2  0  0  0  0
  3  4  1  0  0  0  0
  4  5  2  0  0  0  0
  5  6  1  0  0  0  0
  6  7  2  0  0  0  0
  2  7  1  0  0  0  0
  7  8  1  0  0  0  0
  6  9  1  0  0  0  0
  9 10  1  0  0  0  0
 10 11  2  0  0  0  0
 10 12  1  0  0  0  0
 12 13  1  0  0  0  0
 13 14  1  0  0  0  0
 14 15  1  0  0  0  0
 15 16  1  0  0  0  0
 16 17  1  0  0  0  0
 12 17  1  0  0  0  0
 13 18  1  0  0  0  0
 18 19  1  0  0  0  0
 19 20  1  0  0  0  0
 20 21  1  0  0  0  0
  5 22  1  0  0  0  0
M  CHG  2   1   1  23  -1
M  END
>  <Name>
Bupivacaine HCl

>  <CAS>
18010-40-7

>  <Formula>
C18H28N2O.HCl

>  <MolWt>
324.89 

>  <Bioactivity>
Bupivacaine HCl binds to the intracellular portion of voltage-gated sodium channels and blocks sodium influx into nerve cells, used for treating cardiac arrhythmias. Bupivacaine Hydrochloride is a local anaesthetic drug belonging to the amino amide group.

>  <Pathways>
Membrane Transporter/Ion Channel

>  <Target>
Sodium Channel inhibitor

>  <Receptor>
PGE2 receptor;Sodium channel

>  <Reference>
1. Sheets MF, et al. Trends Cardiovasc Med. 2010 Jan;20(1):16-21. 

$$$$
6151-40-2
  Mrv1561503291623562D          

 27 27  0  0  1  0            999 V2000
    0.9412   -0.1031    0.0000 C   0  0  0  0  0  0  0  0  0  0  0  0
    1.6556    0.3094    0.0000 N   0  0  0  0  0  0  0  0  0  0  0  0
    2.3701   -0.1031    0.0000 C   0  0  0  0  0  0  0  0  0  0  0  0
    2.3701   -0.9281    0.0000 C   0  0  0  0  0  0  0  0  0  0  0  0
    1.6556   -1.3406    0.0000 C   0  0  0  0  0  0  0  0  0  0  0  0
    0.9412   -0.9281    0.0000 C   0  0  0  0  0  0  0  0  0  0  0  0
    1.7931   -0.7906    0.0000 C   0  0  0  0  0  0  0  0  0  0  0  0
    1.7931   -0.2406    0.0000 C   0  0  0  0  0  0  0  0  0  0  0  0
    3.0846   -1.3406    0.0000 C   0  0  0  0  0  0  0  0  0  0  0  0
    3.0846   -2.1656    0.0000 C   0  0  0  0  0  0  0  0  0  0  0  0
    0.2267    0.3094    0.0000 C   0  0  0  0  0  0  0  0  0  0  0  0
    0.2267    1.1344    0.0000 O   0  0  0  0  0  0  0  0  0  0  0  0
   -0.4878   -0.1031    0.0000 C   0  0  0  0  0  0  0  0  0  0  0  0
   -1.2022    0.3094    0.0000 C   0  0  0  0  0  0  0  0  0  0  0  0
   -1.9167   -0.1031    0.0000 C   0  0  0  0  0  0  0  0  0  0  0  0
   -1.9167   -0.9281    0.0000 N   0  0  0  0  0  0  0  0  0  0  0  0
   -1.2022   -1.3406    0.0000 C   0  0  0  0  0  0  0  0  0  0  0  0
   -0.4878   -0.9281    0.0000 C   0  0  0  0  0  0  0  0  0  0  0  0
   -2.6312    0.3094    0.0000 C   0  0  0  0  0  0  0  0  0  0  0  0
   -2.6312    1.1344    0.0000 C   0  0  0  0  0  0  0  0  0  0  0  0
   -1.9167    1.5469    0.0000 C   0  0  0  0  0  0  0  0  0  0  0  0
   -1.2022    1.1344    0.0000 C   0  0  0  0  0  0  0  0  0  0  0  0
   -1.9167    2.3719    0.0000 O   0  0  0  0  0  0  0  0  0  0  0  0
   -2.6312    2.7844    0.0000 C   0  0  0  0  0  0  0  0  0  0  0  0
    6.2667    0.0000    0.0000 H   0  3  0  0  0  0  0  0  0  0  0  0
    5.4417    0.0000    0.0000 Cl  0  5  0  0  0  0  0  0  0  0  0  0
    0.0000   -3.8156    0.0000 O   0  0  0  0  0  0  0  0  0  0  0  0
  1  2  1  0  0  0  0
  2  3  1  0  0  0  0
  3  4  1  0  0  0  0
  4  5  1  0  0  0  0
  5  6  1  0  0  0  0
  1  6  1  0  0  0  0
  5  7  1  0  0  0  0
  7  8  1  0  0  0  0
  2  8  1  0  0  0  0
  4  9  1  0  0  0  0
  9 10  2  0  0  0  0
  1 11  1  0  0  0  0
 11 12  1  0  0  0  0
 11 13  1  0  0  0  0
 13 14  2  0  0  0  0
 14 15  1  0  0  0  0
 15 16  2  0  0  0  0
 16 17  1  0  0  0  0
 17 18  2  0  0  0  0
 13 18  1  0  0  0  0
 15 19  1  0  0  0  0
 19 20  2  0  0  0  0
 20 21  1  0  0  0  0
 21 22  2  0  0  0  0
 14 22  1  0  0  0  0
 21 23  1  0  0  0  0
 23 24  1  0  0  0  0
M  CHG  2  25   1  26  -1
M  END
>  <Name>
Quinidine HCl

>  <CAS>
6151-40-2

>  <Formula>
C20H24N2O2·HCl·H2O

>  <MolWt>
378.89 

>  <Bioactivity>
An optical isomer of quinine, extracted from the bark of the Cinchona tree and similar plant species. This alkaloid dampens the excitability of cardiac and skeletal muscles by blocking sodium and potassium currents across cellular membranes. It prolongs cellular action potential, and decreases automaticity. Quinidine also blocks muscarinic and alpha-adrenergic neurotransmission. 

>  <Pathways>
Membrane Transporter/Ion Channel

>  <Target>
Potassium Channel inhibitor;Sodium Channel inhibitor

>  <Receptor>
Potassium Channel ;Sodium channel

>  <Reference>
1. Stokoe KS, et al. J Physiol. 2007 Jan 1;578(Pt 1):69-84. 

$$$$
51460-26-5
  Mrv1561503291623562D          

 21 21  0  0  0  0            999 V2000
    0.8838    0.7541    0.0000 C   0  0  0  0  0  0  0  0  0  0  0  0
    1.1387   -0.0305    0.0000 N   0  0  0  0  0  0  0  0  0  0  0  0
    1.9233   -0.2854    0.0000 C   0  0  0  0  0  0  0  0  0  0  0  0
    2.6378    0.1271    0.0000 C   0  0  0  0  0  0  0  0  0  0  0  0
    3.3523   -0.2854    0.0000 C   0  0  0  0  0  0  0  0  0  0  0  0
    4.0668    0.1271    0.0000 O   0  0  0  0  0  0  0  0  0  0  0  0
    3.3523   -1.1104    0.0000 C   0  0  0  0  0  0  0  0  0  0  0  0
    2.6378   -1.5229    0.0000 C   0  0  0  0  0  0  0  0  0  0  0  0
    1.9233   -1.1104    0.0000 C   0  0  0  0  0  0  0  0  0  0  0  0
    1.1387   -1.3654    0.0000 C   0  0  0  0  0  0  0  0  0  0  0  0
    0.6538   -0.6979    0.0000 C   0  0  0  0  0  0  0  0  0  0  0  0
   -0.1712   -0.6979    0.0000 S   0  0  0  0  0  0  0  0  0  0  0  0
   -0.1712    0.1271    0.0000 O   0  0  0  0  0  0  0  0  0  0  0  0
   -0.1712   -1.5229    0.0000 O   0  0  0  0  0  0  0  0  0  0  0  0
   -0.9962   -0.6979    0.0000 O   0  5  0  0  0  0  0  0  0  0  0  0
    4.0668   -1.5229    0.0000 N   0  0  0  0  0  0  0  0  0  0  0  0
    4.7812   -1.1104    0.0000 N   0  0  0  0  0  0  0  0  0  0  0  0
    5.4957   -1.5229    0.0000 C   0  0  0  0  0  0  0  0  0  0  0  0
    6.2102   -1.1104    0.0000 N   0  0  0  0  0  0  0  0  0  0  0  0
    5.4957   -2.3479    0.0000 O   0  0  0  0  0  0  0  0  0  0  0  0
   -1.8212   -0.6979    0.0000 Na  0  3  0  0  0  0  0  0  0  0  0  0
  1  2  1  0  0  0  0
  2  3  1  0  0  0  0
  3  4  2  0  0  0  0
  4  5  1  0  0  0  0
  5  6  2  0  0  0  0
  5  7  1  0  0  0  0
  7  8  1  0  0  0  0
  8  9  2  0  0  0  0
  3  9  1  0  0  0  0
  9 10  1  0  0  0  0
 10 11  1  0  0  0  0
  2 11  1  0  0  0  0
 11 12  1  0  0  0  0
 12 13  2  0  0  0  0
 12 14  2  0  0  0  0
 12 15  1  0  0  0  0
  7 16  2  0  0  0  0
 16 17  1  0  0  0  0
 17 18  1  0  0  0  0
 18 19  1  0  0  0  0
 18 20  2  0  0  0  0
M  CHG  2  15  -1  21   1
M  END
>  <Name>
Carbazochrome sodium sulfonate

>  <CAS>
51460-26-5

>  <Formula>
C10H17N4NaO8S

>  <MolWt>
376.32 

>  <Bioactivity>
Carbazochrome sodium sulfonate (AC-17) is an antihemorrhagic for use in the treatment of hemorrhoids

>  <Pathways>
Others

>  <Target>
Others

>  <Receptor>
Others

>  <Reference>
1. Sendo T, et al. Naunyn Schmiedebergs Arch Pharmacol, 2003, 368(3), 175-180.

$$$$
T1296
  Mrv1561503291623562D          

 11 11  0  0  0  0            999 V2000
    1.4289    0.8250    0.0000 C   0  0  0  0  0  0  0  0  0  0  0  0
    1.4289    0.0000    0.0000 C   0  0  0  0  0  0  0  0  0  0  0  0
    0.7145   -0.4125    0.0000 C   0  0  0  0  0  0  0  0  0  0  0  0
   -0.0000    0.0000    0.0000 C   0  0  0  0  0  0  0  0  0  0  0  0
   -0.0000    0.8250    0.0000 C   0  0  0  0  0  0  0  0  0  0  0  0
    0.7145    1.2375    0.0000 C   0  0  0  0  0  0  0  0  0  0  0  0
    0.7145    2.0625    0.0000 C   0  0  0  0  0  0  0  0  0  0  0  0
    0.0000    2.4750    0.0000 O   0  0  0  0  0  0  0  0  0  0  0  0
    1.4289    2.4750    0.0000 O   0  0  0  0  0  0  0  0  0  0  0  0
   -0.7145    1.2375    0.0000 O   0  0  0  0  0  0  0  0  0  0  0  0
    0.7145   -1.2375    0.0000 N   0  0  0  0  0  0  0  0  0  0  0  0
  1  2  2  0  0  0  0
  2  3  1  0  0  0  0
  3  4  2  0  0  0  0
  4  5  1  0  0  0  0
  5  6  2  0  0  0  0
  1  6  1  0  0  0  0
  6  7  1  0  0  0  0
  7  8  1  0  0  0  0
  7  9  2  0  0  0  0
  5 10  1  0  0  0  0
  3 11  1  0  0  0  0
M  END
>  <Name>
Aminopar

>  <CAS>
65-49-6

>  <Formula>
C7H7NO3

>  <MolWt>
153.14 

>  <Bioactivity>
4-aminosalicylic acid, commonly known as PAS, is an antibiotic used to treat tuberculosis.

>  <Pathways>
Neuroscience;Immunology/Inflammation

>  <Target>
NF-?B inhibitor;COX inhibitor

>  <Receptor>
MPO;NF-?B kinase;ALOX5; Prostaglandin G/H synthase2

>  <Reference>
1. Mifflin RC, et al. Mol Pharmacol. 2004 Feb;65(2):470-8.

$$$$
103890-78-4
  Mrv1561503291623562D          

 33 34  0  0  0  0            999 V2000
   -0.0000   -2.4750    0.0000 C   0  0  0  0  0  0  0  0  0  0  0  0
   -0.0000   -1.6500    0.0000 C   0  0  0  0  0  0  0  0  0  0  0  0
   -0.7145   -1.2375    0.0000 C   0  0  0  0  0  0  0  0  0  0  0  0
   -1.4289   -1.6500    0.0000 C   0  0  0  0  0  0  0  0  0  0  0  0
   -2.1434   -1.2375    0.0000 C   0  0  0  0  0  0  0  0  0  0  0  0
   -2.1434   -0.4125    0.0000 N   0  0  0  0  0  0  0  0  0  0  0  0
   -1.4289    0.0000    0.0000 C   0  0  0  0  0  0  0  0  0  0  0  0
   -0.7145   -0.4125    0.0000 C   0  0  0  0  0  0  0  0  0  0  0  0
    0.0000   -0.0000    0.0000 C   0  0  0  0  0  0  0  0  0  0  0  0
    0.0000    0.8250    0.0000 O   0  0  0  0  0  0  0  0  0  0  0  0
    0.7145    1.2375    0.0000 C   0  0  0  0  0  0  0  0  0  0  0  0
    0.7145    2.0625    0.0000 C   0  0  0  0  0  0  0  0  0  0  0  0
    0.8205    0.0862    0.0000 O   0  0  0  0  0  0  0  0  0  0  0  0
   -1.4289    0.8250    0.0000 C   0  0  0  0  0  0  0  0  0  0  0  0
   -2.8579   -1.6500    0.0000 C   0  0  0  0  0  0  0  0  0  0  0  0
   -1.4289   -2.4750    0.0000 C   0  0  0  0  0  0  0  0  0  0  0  0
   -2.1434   -2.8875    0.0000 O   0  0  0  0  0  0  0  0  0  0  0  0
   -2.1434   -3.7125    0.0000 C   0  0  0  0  0  0  0  0  0  0  0  0
   -2.8579   -4.1250    0.0000 C   0  0  0  0  0  0  0  0  0  0  0  0
   -0.7145   -2.8875    0.0000 O   0  0  0  0  0  0  0  0  0  0  0  0
    0.7145   -1.2375    0.0000 C   0  0  0  0  0  0  0  0  0  0  0  0
    1.4289   -1.6500    0.0000 C   0  0  0  0  0  0  0  0  0  0  0  0
    1.4289   -2.4750    0.0000 C   0  0  0  0  0  0  0  0  0  0  0  0
    0.7145   -2.8875    0.0000 C   0  0  0  0  0  0  0  0  0  0  0  0
    0.7145   -0.4125    0.0000 C   0  0  0  0  0  0  0  0  0  0  0  0
    1.4289    0.0000    0.0000 C   0  0  0  0  0  0  0  0  0  0  0  0
    1.4289    0.8250    0.0000 C   0  0  0  0  0  0  0  0  0  0  0  0
    2.1434    1.2375    0.0000 O   0  0  0  0  0  0  0  0  0  0  0  0
    2.8579    0.8250    0.0000 C   0  0  0  0  0  0  0  0  0  0  0  0
    3.5724    0.4125    0.0000 C   0  0  0  0  0  0  0  0  0  0  0  0
    2.4454    0.1105    0.0000 C   0  0  0  0  0  0  0  0  0  0  0  0
    3.2704    1.5395    0.0000 C   0  0  0  0  0  0  0  0  0  0  0  0
    1.0934    1.5787    0.0000 O   0  0  0  0  0  0  0  0  0  0  0  0
  1  2  2  0  0  0  0
  2  3  1  0  0  0  0
  3  4  1  0  0  0  0
  4  5  2  0  0  0  0
  5  6  1  0  0  0  0
  6  7  1  0  0  0  0
  7  8  2  0  0  0  0
  3  8  1  0  0  0  0
  8  9  1  0  0  0  0
  9 10  1  0  0  0  0
 10 11  1  0  0  0  0
 11 12  1  0  0  0  0
  9 13  2  0  0  0  0
  7 14  1  0  0  0  0
  5 15  1  0  0  0  0
  4 16  1  0  0  0  0
 16 17  1  0  0  0  0
 17 18  1  0  0  0  0
 18 19  1  0  0  0  0
 16 20  2  0  0  0  0
  2 21  1  0  0  0  0
 21 22  2  0  0  0  0
 22 23  1  0  0  0  0
 23 24  2  0  0  0  0
  1 24  1  0  0  0  0
 21 25  1  0  0  0  0
 25 26  2  0  0  0  0
 26 27  1  0  0  0  0
 27 28  1  0  0  0  0
 28 29  1  0  0  0  0
 29 30  1  0  0  0  0
 29 31  1  0  0  0  0
 29 32  1  0  0  0  0
 27 33  2  0  0  0  0
M  END
>  <Name>
Lacidipine

>  <CAS>
103890-78-4

>  <Formula>
C26H33NO6

>  <MolWt>
455.54 

>  <Bioactivity>
Lacidipine (Lacipil, Motens) is a L-type calcium channel blocker.Lacidipine, a novel third-generation dihydropyridine calcium channel blocker, has been demonstrated effective for hypertension. lacidipine protects HKCs against apoptosis induced by ATP depl

>  <Pathways>
Membrane Transporter/Ion Channel

>  <Target>
Calcium Channel inhibitor

>  <Receptor>
Calcium Channel

>  <Reference>
1. Huai Y, et al. Eur J Pharmacol. 2013 Oct 15;718(1-3):441-7.

$$$$
135459-87-9
  Mrv1561503291623562D          

 25 23  0  0  0  0            999 V2000
    2.5168   -0.5366    0.0000 C   0  0  0  0  0  0  0  0  0  0  0  0
    2.0319    0.1308    0.0000 C   0  0  0  0  0  0  0  0  0  0  0  0
    1.2069    0.1308    0.0000 C   0  0  0  0  0  0  0  0  0  0  0  0
    0.9519    0.9154    0.0000 S   0  0  0  0  0  0  0  0  0  0  0  0
    1.6194    1.4004    0.0000 C   0  0  0  0  0  0  0  0  0  0  0  0
    2.2868    0.9154    0.0000 C   0  0  0  0  0  0  0  0  0  0  0  0
    3.0714    1.1704    0.0000 C   0  0  0  0  0  0  0  0  0  0  0  0
    3.8561    1.4253    0.0000 N   0  0  0  0  0  0  0  0  0  0  0  0
    1.6194    2.2254    0.0000 N   0  0  0  0  0  0  0  0  0  0  0  0
    0.9049    2.6379    0.0000 C   0  0  0  0  0  0  0  0  0  0  0  0
    0.9049    3.4629    0.0000 C   0  0  0  0  0  0  0  0  0  0  0  0
    1.6194    3.8754    0.0000 O   0  0  0  0  0  0  0  0  0  0  0  0
    0.1904    3.8754    0.0000 O   0  5  0  0  0  0  0  0  0  0  0  0
    2.3338    2.6379    0.0000 C   0  0  0  0  0  0  0  0  0  0  0  0
    2.3338    3.4629    0.0000 C   0  0  0  0  0  0  0  0  0  0  0  0
    1.9983    4.2165    0.0000 O   0  0  0  0  0  0  0  0  0  0  0  0
    3.0483    3.8754    0.0000 O   0  5  0  0  0  0  0  0  0  0  0  0
    0.7220   -0.5366    0.0000 C   0  0  0  0  0  0  0  0  0  0  0  0
    1.0575   -1.2903    0.0000 O   0  0  0  0  0  0  0  0  0  0  0  0
   -0.0985   -0.4504    0.0000 O   0  5  0  0  0  0  0  0  0  0  0  0
    3.3373   -0.4504    0.0000 C   0  0  0  0  0  0  0  0  0  0  0  0
    3.6728    0.3033    0.0000 O   0  0  0  0  0  0  0  0  0  0  0  0
    3.8222   -1.1178    0.0000 O   0  5  0  0  0  0  0  0  0  0  0  0
   -0.5240    4.2879    0.0000 Sr  0  2  0  0  0  0  0  0  0  0  0  0
    3.7628    4.2879    0.0000 Sr  0  2  0  0  0  0  0  0  0  0  0  0
  1  2  1  0  0  0  0
  2  3  2  0  0  0  0
  3  4  1  0  0  0  0
  4  5  1  0  0  0  0
  5  6  2  0  0  0  0
  2  6  1  0  0  0  0
  6  7  1  0  0  0  0
  7  8  3  0  0  0  0
  5  9  1  0  0  0  0
  9 10  1  0  0  0  0
 10 11  1  0  0  0  0
 11 12  2  0  0  0  0
 11 13  1  0  0  0  0
  9 14  1  0  0  0  0
 14 15  1  0  0  0  0
 15 16  2  0  0  0  0
 15 17  1  0  0  0  0
  3 18  1  0  0  0  0
 18 19  2  0  0  0  0
 18 20  1  0  0  0  0
  1 21  1  0  0  0  0
 21 22  2  0  0  0  0
 21 23  1  0  0  0  0
M  CHG  6  13  -1  17  -1  20  -1  23  -1  24   2  25   2
M  END
>  <Name>
Strontium ranelate

>  <CAS>
135459-87-9

>  <Formula>
C12H6N2O8S.2Sr

>  <MolWt>
513.49 

>  <Bioactivity>
Strontium Ranelate is a bone metabolism modulator that inhibits bone resorption while maintaining bone formation. Commonly used as an antiosteoporotic.

>  <Pathways>
Membrane Transporter/Ion Channel

>  <Target>
Calcium Channel inhibitor

>  <Receptor>
Calcium Channel

>  <Reference>
1. Kirschneck C, et al. Eur J Pharmacol. 2014 Dec 5;744:67-75. 

$$$$
64461-82-1
  Mrv1561503291623562D          

 18 18  0  0  0  0            999 V2000
    0.4125    0.0000    0.0000 H   0  3  0  0  0  0  0  0  0  0  0  0
    4.7898    1.7339    0.0000 C   0  0  0  0  0  0  0  0  0  0  0  0
    5.5043    1.3214    0.0000 C   0  0  0  0  0  0  0  0  0  0  0  0
    5.5043    0.4964    0.0000 C   0  0  0  0  0  0  0  0  0  0  0  0
    4.7898    0.0839    0.0000 C   0  0  0  0  0  0  0  0  0  0  0  0
    4.7898   -0.7411    0.0000 N   0  0  0  0  0  0  0  0  0  0  0  0
    4.0754   -1.1536    0.0000 C   0  0  0  0  0  0  0  0  0  0  0  0
    3.9891   -1.9741    0.0000 N   0  0  0  0  0  0  0  0  0  0  0  0
    3.1821   -2.1456    0.0000 C   0  0  0  0  0  0  0  0  0  0  0  0
    2.7696   -1.4312    0.0000 C   0  0  0  0  0  0  0  0  0  0  0  0
    3.3217   -0.8181    0.0000 N   0  0  0  0  0  0  0  0  0  0  0  0
    4.0754    0.4964    0.0000 C   0  0  0  0  0  0  0  0  0  0  0  0
    3.2907    0.2414    0.0000 N   0  0  0  0  0  0  0  0  0  0  0  0
    2.8058    0.9089    0.0000 S   0  0  0  0  0  0  0  0  0  0  0  0
    3.2907    1.5763    0.0000 N   0  0  0  0  0  0  0  0  0  0  0  0
    4.0754    1.3214    0.0000 C   0  0  0  0  0  0  0  0  0  0  0  0
    6.2188    0.0839    0.0000 Cl  0  0  0  0  0  0  0  0  0  0  0  0
   -0.4125    0.0000    0.0000 Cl  0  5  0  0  0  0  0  0  0  0  0  0
  2  3  2  0  0  0  0
  3  4  1  0  0  0  0
  4  5  2  0  0  0  0
  5  6  1  0  0  0  0
  6  7  1  0  0  0  0
  7  8  2  0  0  0  0
  8  9  1  0  0  0  0
  9 10  1  0  0  0  0
 10 11  1  0  0  0  0
  7 11  1  0  0  0  0
  5 12  1  0  0  0  0
 12 13  2  0  0  0  0
 13 14  1  0  0  0  0
 14 15  1  0  0  0  0
 15 16  2  0  0  0  0
  2 16  1  0  0  0  0
 12 16  1  0  0  0  0
  4 17  1  0  0  0  0
M  CHG  2   1   1  18  -1
M  END
>  <Name>
Tizanidine HCl

>  <CAS>
64461-82-1

>  <Formula>
C9H9Cl2N5S

>  <MolWt>
290.17 

>  <Bioactivity>
Tizanidine hydrochloride is an ?2-adrenergic receptor agonist and inhibits neurotransmitter release from CNS noradrenergic neurons.

>  <Pathways>
GPCR/G Protein

>  <Target>
Adrenergic Receptor agonist

>  <Receptor>
Adrenergic Receptor

>  <Reference>
1. Piletz JE, et al. J Pharmacol Exp Ther. 1996 Nov;279(2):694-702.

$$$$
2809-21-4
  Mrv1561503291623562D          

 11 10  0  0  0  0            999 V2000
    1.6500    0.0000    0.0000 C   0  0  0  0  0  0  0  0  0  0  0  0
    0.8250    0.0000    0.0000 C   0  0  0  0  0  0  0  0  0  0  0  0
    0.8250    0.8250    0.0000 P   0  0  0  0  0  0  0  0  0  0  0  0
    0.8250    1.6500    0.0000 O   0  0  0  0  0  0  0  0  0  0  0  0
    0.0000    0.8250    0.0000 O   0  0  0  0  0  0  0  0  0  0  0  0
    1.6500    0.8250    0.0000 O   0  0  0  0  0  0  0  0  0  0  0  0
    0.8250   -0.8250    0.0000 P   0  0  0  0  0  0  0  0  0  0  0  0
    0.8250   -1.6500    0.0000 O   0  0  0  0  0  0  0  0  0  0  0  0
    0.0000   -0.8250    0.0000 O   0  0  0  0  0  0  0  0  0  0  0  0
    1.6500   -0.8250    0.0000 O   0  0  0  0  0  0  0  0  0  0  0  0
    0.0000    0.0000    0.0000 O   0  0  0  0  0  0  0  0  0  0  0  0
  1  2  1  0  0  0  0
  2  3  1  0  0  0  0
  3  4  1  0  0  0  0
  3  5  1  0  0  0  0
  3  6  2  0  0  0  0
  2  7  1  0  0  0  0
  7  8  1  0  0  0  0
  7  9  1  0  0  0  0
  7 10  2  0  0  0  0
  2 11  1  0  0  0  0
M  END
>  <Name>
Etidronate

>  <CAS>
2809-21-4

>  <Formula>
C2H8O7P2

>  <MolWt>
206.03 

>  <Bioactivity>
Etidronate (Didronel) is a human protein tyrosine phosphatase inhibitor.

>  <Pathways>
Membrane Transporter/Ion Channel;Metabolism

>  <Target>
ATPase inhibitor; HAP antagonist;PTPase inhibitor

>  <Receptor>
V-type proton ATPase catalytic subunit; HAP; PTPase S

>  <Reference>
1. Grases F, et al. Circ J. 2007 Jul;71(7):1152-6.

$$$$
60166-93-0
  Mrv1561503291623562D          

 31 31  0  0  1  0            999 V2000
   -2.8579    6.6000    0.0000 C   0  0  2  0  0  0  0  0  0  0  0  0
   -2.8579    5.7750    0.0000 C   0  0  0  0  0  0  0  0  0  0  0  0
   -2.1434    5.3625    0.0000 N   0  0  0  0  0  0  0  0  0  0  0  0
   -2.1434    4.5375    0.0000 C   0  0  0  0  0  0  0  0  0  0  0  0
   -1.4289    4.1250    0.0000 C   0  0  0  0  0  0  0  0  0  0  0  0
   -1.4289    3.3000    0.0000 C   0  0  0  0  0  0  0  0  0  0  0  0
   -2.1434    2.8875    0.0000 C   0  0  0  0  0  0  0  0  0  0  0  0
   -2.8579    3.3000    0.0000 C   0  0  0  0  0  0  0  0  0  0  0  0
   -2.8579    4.1250    0.0000 C   0  0  0  0  0  0  0  0  0  0  0  0
   -3.5724    4.5375    0.0000 I   0  0  0  0  0  0  0  0  0  0  0  0
   -3.5724    2.8875    0.0000 C   0  0  0  0  0  0  0  0  0  0  0  0
   -4.2868    3.3000    0.0000 N   0  0  0  0  0  0  0  0  0  0  0  0
   -5.0013    2.8875    0.0000 C   0  0  0  0  0  0  0  0  0  0  0  0
   -5.7158    3.3000    0.0000 C   0  0  0  0  0  0  0  0  0  0  0  0
   -6.4302    2.8875    0.0000 O   0  0  0  0  0  0  0  0  0  0  0  0
   -5.0013    2.0625    0.0000 C   0  0  0  0  0  0  0  0  0  0  0  0
   -5.7158    1.6500    0.0000 O   0  0  0  0  0  0  0  0  0  0  0  0
   -3.5724    2.0625    0.0000 O   0  0  0  0  0  0  0  0  0  0  0  0
   -2.1434    2.0625    0.0000 I   0  0  0  0  0  0  0  0  0  0  0  0
   -0.7145    2.8875    0.0000 C   0  0  0  0  0  0  0  0  0  0  0  0
   -0.7145    2.0625    0.0000 N   0  0  0  0  0  0  0  0  0  0  0  0
    0.0000    1.6500    0.0000 C   0  0  0  0  0  0  0  0  0  0  0  0
    0.0000    0.8250    0.0000 C   0  0  0  0  0  0  0  0  0  0  0  0
    0.7145    0.4125    0.0000 O   0  0  0  0  0  0  0  0  0  0  0  0
    0.7145    2.0625    0.0000 C   0  0  0  0  0  0  0  0  0  0  0  0
    1.4289    1.6500    0.0000 O   0  0  0  0  0  0  0  0  0  0  0  0
    0.0000    3.3000    0.0000 O   0  0  0  0  0  0  0  0  0  0  0  0
   -0.7145    4.5375    0.0000 I   0  0  0  0  0  0  0  0  0  0  0  0
   -3.5724    5.3625    0.0000 O   0  0  0  0  0  0  0  0  0  0  0  0
   -3.5724    7.0125    0.0000 C   0  0  0  0  0  0  0  0  0  0  0  0
   -2.1434    7.0125    0.0000 O   0  0  0  0  0  0  0  0  0  0  0  0
  1  2  1  0  0  0  0
  2  3  1  0  0  0  0
  3  4  1  0  0  0  0
  4  5  2  0  0  0  0
  5  6  1  0  0  0  0
  6  7  2  0  0  0  0
  7  8  1  0  0  0  0
  8  9  2  0  0  0  0
  4  9  1  0  0  0  0
  9 10  1  0  0  0  0
  8 11  1  0  0  0  0
 11 12  1  0  0  0  0
 12 13  1  0  0  0  0
 13 14  1  0  0  0  0
 14 15  1  0  0  0  0
 13 16  1  0  0  0  0
 16 17  1  0  0  0  0
 11 18  2  0  0  0  0
  7 19  1  0  0  0  0
  6 20  1  0  0  0  0
 20 21  1  0  0  0  0
 21 22  1  0  0  0  0
 22 23  1  0  0  0  0
 23 24  1  0  0  0  0
 22 25  1  0  0  0  0
 25 26  1  0  0  0  0
 20 27  2  0  0  0  0
  5 28  1  0  0  0  0
  2 29  2  0  0  0  0
  1 30  1  0  0  0  0
  1 31  1  6  0  0  0
M  END
>  <Name>
Iopamidol

>  <CAS>
60166-93-0

>  <Formula>
C17H22I3N3O8

>  <MolWt>
777.09 

>  <Bioactivity>
A non-ionic, water-soluble contrast agent which is used in myelography, arthrography, nephroangiography, arteriography, and other radiological procedures.  

>  <Pathways>
Others

>  <Target>
Others

>  <Receptor>
Others

>  <Reference>
1. Weiland FL, et al. Acta Radiol. 2014 Jul;55(6):715-24. 

$$$$
102767-28-2
  Mrv1561503291623562D          

 12 12  0  0  1  0            999 V2000
    0.5678    1.9393    0.0000 C   0  0  1  0  0  0  0  0  0  0  0  0
    0.5678    1.1143    0.0000 N   0  0  0  0  0  0  0  0  0  0  0  0
    1.2352    0.6294    0.0000 C   0  0  0  0  0  0  0  0  0  0  0  0
    2.0198    0.8843    0.0000 O   0  0  0  0  0  0  0  0  0  0  0  0
    0.9803   -0.1553    0.0000 C   0  0  0  0  0  0  0  0  0  0  0  0
    0.1553   -0.1553    0.0000 C   0  0  0  0  0  0  0  0  0  0  0  0
   -0.0997    0.6294    0.0000 C   0  0  0  0  0  0  0  0  0  0  0  0
    1.2822    2.3518    0.0000 C   0  0  0  0  0  0  0  0  0  0  0  0
    1.2822    3.1768    0.0000 O   0  0  0  0  0  0  0  0  0  0  0  0
    1.9967    1.9393    0.0000 N   0  0  0  0  0  0  0  0  0  0  0  0
   -0.1467    2.3518    0.0000 C   0  0  0  0  0  0  0  0  0  0  0  0
   -0.1467    3.1768    0.0000 C   0  0  0  0  0  0  0  0  0  0  0  0
  1  2  1  6  0  0  0
  2  3  1  0  0  0  0
  3  4  2  0  0  0  0
  3  5  1  0  0  0  0
  5  6  1  0  0  0  0
  6  7  1  0  0  0  0
  2  7  1  0  0  0  0
  1  8  1  0  0  0  0
  8  9  2  0  0  0  0
  8 10  1  0  0  0  0
  1 11  1  0  0  0  0
 11 12  1  0  0  0  0
M  END
>  <Name>
Levetiracetam

>  <CAS>
102767-28-2

>  <Formula>
C8H14N2O2

>  <MolWt>
170.21 

>  <Bioactivity>
Levetiracetam is an anticonvulsant medication used to treat epilepsy. Levetiracetam may selectively prevent hypersynchronization of epileptiform burst firing and propagation of seizure activity. Levetiracetam binds to the synaptic vesicle protein SV2A, which is thought to be involved in the regulation of vesicle exocytosis. Although the molecular significance of levetiracetam binding to synaptic vesicle protein SV2A is not understood, levetiracetam and related analogs showed a rank order of affinity for SV2A which correlated with the potency of their antiseizure activity in audiogenic seizure-prone mice. 

>  <Pathways>
Membrane Transporter/Ion Channel

>  <Target>
Calcium Channel

>  <Receptor>
Synaptic vesicle glycoprotein 2A;Calcium Channel

>  <Reference>
1. Lynch BA, et al. Proc Natl Acad Sci U S A. 2004 Jun 29;101(26):9861-6. 

$$$$
98717-15-8
  Mrv1561503291623562D          

 22 21  0  0  1  0            999 V2000
   -0.0357   -0.9694    0.0000 C   0  0  0  0  0  0  0  0  0  0  0  0
    0.6787   -1.3819    0.0000 N   0  0  0  0  0  0  0  0  0  0  0  0
    0.6787   -2.2069    0.0000 C   0  0  0  0  0  0  0  0  0  0  0  0
   -0.0357   -2.6194    0.0000 C   0  0  0  0  0  0  0  0  0  0  0  0
   -0.7502   -2.2069    0.0000 C   0  0  0  0  0  0  0  0  0  0  0  0
   -0.7502   -1.3819    0.0000 C   0  0  0  0  0  0  0  0  0  0  0  0
    1.3932   -0.9694    0.0000 C   0  0  0  0  0  0  0  0  0  0  0  0
    2.1077   -1.3819    0.0000 C   0  0  0  0  0  0  0  0  0  0  0  0
    2.8222   -0.9694    0.0000 C   0  0  0  0  0  0  0  0  0  0  0  0
   -0.0357   -0.1444    0.0000 C   0  0  0  0  0  0  0  0  0  0  0  0
    0.6787    0.2681    0.0000 O   0  0  0  0  0  0  0  0  0  0  0  0
   -0.7502    0.2681    0.0000 N   0  0  0  0  0  0  0  0  0  0  0  0
   -0.7502    1.0931    0.0000 C   0  0  0  0  0  0  0  0  0  0  0  0
   -1.4647    1.5056    0.0000 C   0  0  0  0  0  0  0  0  0  0  0  0
   -1.4647    2.3306    0.0000 C   0  0  0  0  0  0  0  0  0  0  0  0
   -0.7502    2.7431    0.0000 C   0  0  0  0  0  0  0  0  0  0  0  0
   -0.0357    2.3306    0.0000 C   0  0  0  0  0  0  0  0  0  0  0  0
   -0.0357    1.5056    0.0000 C   0  0  0  0  0  0  0  0  0  0  0  0
    0.6787    1.0931    0.0000 C   0  0  0  0  0  0  0  0  0  0  0  0
   -2.1791    1.0931    0.0000 C   0  0  0  0  0  0  0  0  0  0  0  0
    6.0043    0.0000    0.0000 H   0  3  0  0  0  0  0  0  0  0  0  0
    5.1793    0.0000    0.0000 Cl  0  5  0  0  0  0  0  0  0  0  0  0
  1  2  1  0  0  0  0
  2  3  1  0  0  0  0
  3  4  1  0  0  0  0
  4  5  1  0  0  0  0
  5  6  1  0  0  0  0
  1  6  1  0  0  0  0
  2  7  1  0  0  0  0
  7  8  1  0  0  0  0
  8  9  1  0  0  0  0
  1 10  1  0  0  0  0
 10 11  2  0  0  0  0
 10 12  1  0  0  0  0
 12 13  1  0  0  0  0
 13 14  2  0  0  0  0
 14 15  1  0  0  0  0
 15 16  2  0  0  0  0
 16 17  1  0  0  0  0
 17 18  2  0  0  0  0
 13 18  1  0  0  0  0
 18 19  1  0  0  0  0
 14 20  1  0  0  0  0
M  CHG  2  21   1  22  -1
M  END
>  <Name>
Ropivacaine HCl

>  <CAS>
98717-15-8

>  <Formula>
C17H26N2O.HCl

>  <MolWt>
310.86 

>  <Bioactivity>
Ropivacaine is a local anaesthetic drug belonging to the amino amide group. The name ropivacaine refers to both the racemate and the marketed S-enantiomer. Ropivacaine hydrochloride is commonly marketed by AstraZeneca under the trade name Naropin. 

>  <Pathways>
Membrane Transporter/Ion Channel

>  <Target>
Sodium Channel inhibitor

>  <Receptor>
Sodium Channel

>  <Reference>
1. Imming P, et al. Nat Rev Drug Discov. 2006, 5(10):821-34.

$$$$
853-23-6
  Mrv1561503291623562D          

 24 27  0  0  1  0            999 V2000
    1.5596   -2.8327    0.0000 C   0  0  1  0  0  0  0  0  0  0  0  0
    2.0914   -3.4634    0.0000 C   0  0  1  0  0  0  0  0  0  0  0  0
    2.9035   -3.3182    0.0000 C   0  0  2  0  0  0  0  0  0  0  0  0
    3.1838   -2.5422    0.0000 C   0  0  0  0  0  0  0  0  0  0  0  0
    2.6520   -1.9115    0.0000 C   0  0  0  0  0  0  0  0  0  0  0  0
    1.8399   -2.0567    0.0000 C   0  0  0  0  0  0  0  0  0  0  0  0
    3.9960   -2.3970    0.0000 C   0  0  0  0  0  0  0  0  0  0  0  0
    4.5278   -3.0277    0.0000 C   0  0  1  0  0  0  0  0  0  0  0  0
    5.3399   -2.8825    0.0000 O   0  0  0  0  0  0  0  0  0  0  0  0
    5.8717   -3.5132    0.0000 C   0  0  0  0  0  0  0  0  0  0  0  0
    6.6838   -3.3680    0.0000 O   0  0  0  0  0  0  0  0  0  0  0  0
    5.5914   -4.2891    0.0000 C   0  0  0  0  0  0  0  0  0  0  0  0
    4.2475   -3.8037    0.0000 C   0  0  0  0  0  0  0  0  0  0  0  0
    3.4354   -3.9489    0.0000 C   0  0  0  0  0  0  0  0  0  0  0  0
    2.6232   -4.0941    0.0000 C   0  0  0  0  0  0  0  0  0  0  0  0
    1.8111   -4.2393    0.0000 C   0  0  0  0  0  0  0  0  0  0  0  0
    0.9990   -4.3845    0.0000 C   0  0  0  0  0  0  0  0  0  0  0  0
    0.4672   -3.7538    0.0000 C   0  0  1  0  0  0  0  0  0  0  0  0
    0.7475   -2.9779    0.0000 C   0  0  1  0  0  0  0  0  0  0  0  0
    0.0962   -2.4715    0.0000 C   0  0  0  0  0  0  0  0  0  0  0  0
   -0.5867   -2.9345    0.0000 C   0  0  0  0  0  0  0  0  0  0  0  0
   -0.3574   -3.7270    0.0000 C   0  0  0  0  0  0  0  0  0  0  0  0
   -0.8637   -4.3783    0.0000 O   0  0  0  0  0  0  0  0  0  0  0  0
    0.1073   -4.4962    0.0000 C   0  0  0  0  0  0  0  0  0  0  0  0
  1  2  1  0  0  0  0
  2  3  1  0  0  0  0
  3  4  1  0  0  0  0
  4  5  2  0  0  0  0
  5  6  1  0  0  0  0
  1  6  1  6  0  0  0
  4  7  1  0  0  0  0
  7  8  1  0  0  0  0
  8  9  1  1  0  0  0
  9 10  1  0  0  0  0
 10 11  2  0  0  0  0
 10 12  1  0  0  0  0
  8 13  1  0  0  0  0
 13 14  1  0  0  0  0
  3 14  1  0  0  0  0
  3 15  1  1  0  0  0
  2 16  1  1  0  0  0
 16 17  1  0  0  0  0
 17 18  1  0  0  0  0
 18 19  1  0  0  0  0
  1 19  1  0  0  0  0
 19 20  1  1  0  0  0
 20 21  1  0  0  0  0
 21 22  1  0  0  0  0
 18 22  1  0  0  0  0
 22 23  2  0  0  0  0
 18 24  1  1  0  0  0
M  END
>  <Name>
Dehydroepiandrosterone acetate

>  <CAS>
853-23-6

>  <Formula>
C21H30O3

>  <MolWt>
330.46 

>  <Bioactivity>
Dehydroepiandrosterone (DHEA) is a major C19 steroid produced by the adrenal cortex. It is also produced in small quantities in the testis and the ovary. Dehydroepiandrosterone (DHEA) can be converted to testosterone; androstenedione; estradiol; and estrone. Most of DHEA is sulfated (dehydroepiandrosterone sulfate) before secretion.

>  <Pathways>
Endocrinology/ Hormones

>  <Target>
Androgen Receptor agonist

>  <Receptor>
Androgen receptor

>  <Reference>
1. Stárka L, et al. J Steroid Biochem Mol Biol. 2015 Jan;145:254-60. 

$$$$
23327-57-3
  Mrv1561503291623562D          

 21 21  0  0  0  0            999 V2000
    0.4125    0.0000    0.0000 H   0  3  0  0  0  0  0  0  0  0  0  0
    3.0127    0.1217    0.0000 C   0  0  0  0  0  0  0  0  0  0  0  0
    3.7272   -0.2908    0.0000 C   0  0  0  0  0  0  0  0  0  0  0  0
    4.3105    0.2925    0.0000 C   0  0  0  0  0  0  0  0  0  0  0  0
    5.1355    0.2925    0.0000 O   0  0  0  0  0  0  0  0  0  0  0  0
    5.7189   -0.2908    0.0000 C   0  0  0  0  0  0  0  0  0  0  0  0
    5.7189   -1.1158    0.0000 C   0  0  0  0  0  0  0  0  0  0  0  0
    5.1355   -1.6992    0.0000 N   0  0  0  0  0  0  0  0  0  0  0  0
    4.3105   -1.6992    0.0000 C   0  0  0  0  0  0  0  0  0  0  0  0
    3.7272   -1.1158    0.0000 C   0  0  0  0  0  0  0  0  0  0  0  0
    3.0127   -1.5283    0.0000 C   0  0  0  0  0  0  0  0  0  0  0  0
    2.2982   -1.1158    0.0000 C   0  0  0  0  0  0  0  0  0  0  0  0
    2.2982   -0.2908    0.0000 C   0  0  0  0  0  0  0  0  0  0  0  0
    5.4512   -2.4614    0.0000 C   0  0  0  0  0  0  0  0  0  0  0  0
    3.9948    1.0547    0.0000 C   0  0  0  0  0  0  0  0  0  0  0  0
    3.1769    1.1624    0.0000 C   0  0  0  0  0  0  0  0  0  0  0  0
    2.8611    1.9246    0.0000 C   0  0  0  0  0  0  0  0  0  0  0  0
    3.3634    2.5791    0.0000 C   0  0  0  0  0  0  0  0  0  0  0  0
    4.1813    2.4714    0.0000 C   0  0  0  0  0  0  0  0  0  0  0  0
    4.4970    1.7092    0.0000 C   0  0  0  0  0  0  0  0  0  0  0  0
   -0.4125    0.0000    0.0000 Cl  0  5  0  0  0  0  0  0  0  0  0  0
  2  3  2  0  0  0  0
  3  4  1  0  0  0  0
  4  5  1  0  0  0  0
  5  6  1  0  0  0  0
  6  7  1  0  0  0  0
  7  8  1  0  0  0  0
  8  9  1  0  0  0  0
  9 10  1  0  0  0  0
  3 10  1  0  0  0  0
 10 11  2  0  0  0  0
 11 12  1  0  0  0  0
 12 13  2  0  0  0  0
  2 13  1  0  0  0  0
  8 14  1  0  0  0  0
  4 15  1  0  0  0  0
 15 16  2  0  0  0  0
 16 17  1  0  0  0  0
 17 18  2  0  0  0  0
 18 19  1  0  0  0  0
 19 20  2  0  0  0  0
 15 20  1  0  0  0  0
M  CHG  2   1   1  21  -1
M  END
>  <Name>
Nefopam HCl

>  <CAS>
23327-57-3

>  <Formula>
C17H20ClNO

>  <MolWt>
289.80 

>  <Bioactivity>
Nefopam HCl is a centrally-acting but non-opioid analgesic drug by blocking voltage-gated sodium channel and inhibition of serotonin, dopamine and noradrenaline reuptake.

>  <Pathways>
Membrane Transporter/Ion Channel

>  <Target>
Sodium Channel inhibitor

>  <Receptor>
Sodium Channel

>  <Reference>
1. M. S. Evans1, et al, lBr J Anaesth, 2008, 101(5), 610-617.

$$$$
51-05-8
  Mrv1561503291623562D          

 19 17  0  0  0  0            999 V2000
    0.4125    0.0000    0.0000 H   0  3  0  0  0  0  0  0  0  0  0  0
    4.8321    0.2101    0.0000 C   0  0  0  0  0  0  0  0  0  0  0  0
    5.2446   -0.5043    0.0000 C   0  0  0  0  0  0  0  0  0  0  0  0
    6.0696   -0.5043    0.0000 C   0  0  0  0  0  0  0  0  0  0  0  0
    6.4821    0.2101    0.0000 O   0  0  0  0  0  0  0  0  0  0  0  0
    7.3071    0.2101    0.0000 C   0  0  0  0  0  0  0  0  0  0  0  0
    7.7196    0.9246    0.0000 C   0  0  0  0  0  0  0  0  0  0  0  0
    8.5446    0.9246    0.0000 N   0  0  0  0  0  0  0  0  0  0  0  0
    8.9571    1.6391    0.0000 C   0  0  0  0  0  0  0  0  0  0  0  0
    9.7821    1.6391    0.0000 C   0  0  0  0  0  0  0  0  0  0  0  0
    8.9571    0.2101    0.0000 C   0  0  0  0  0  0  0  0  0  0  0  0
    8.5446   -0.5043    0.0000 C   0  0  0  0  0  0  0  0  0  0  0  0
    6.4821   -1.2188    0.0000 O   0  0  0  0  0  0  0  0  0  0  0  0
    4.8321   -1.2188    0.0000 C   0  0  0  0  0  0  0  0  0  0  0  0
    4.0071   -1.2188    0.0000 C   0  0  0  0  0  0  0  0  0  0  0  0
    3.5946   -0.5043    0.0000 C   0  0  0  0  0  0  0  0  0  0  0  0
    4.0071    0.2101    0.0000 C   0  0  0  0  0  0  0  0  0  0  0  0
    2.7696   -0.5043    0.0000 N   0  0  0  0  0  0  0  0  0  0  0  0
   -0.4125    0.0000    0.0000 Cl  0  5  0  0  0  0  0  0  0  0  0  0
  2  3  2  0  0  0  0
  3  4  1  0  0  0  0
  4  5  1  0  0  0  0
  5  6  1  0  0  0  0
  6  7  1  0  0  0  0
  7  8  1  0  0  0  0
  8  9  1  0  0  0  0
  9 10  1  0  0  0  0
  8 11  1  0  0  0  0
 11 12  1  0  0  0  0
  4 13  2  0  0  0  0
  3 14  1  0  0  0  0
 14 15  2  0  0  0  0
 15 16  1  0  0  0  0
 16 17  2  0  0  0  0
  2 17  1  0  0  0  0
 16 18  1  0  0  0  0
M  CHG  2   1   1  19  -1
M  END
>  <Name>
Procaine HCl

>  <CAS>
51-05-8

>  <Formula>
C13H20N2O2.HCl

>  <MolWt>
272.77 

>  <Bioactivity>
A local anesthetic of the ester type that has a slow onset and a short duration of action. It is mainly used for infiltration anesthesia, peripheral nerve block, and spinal block.

>  <Pathways>
Neuroscience

>  <Target>
5-HT Receptor antagonist ;Sodium Channel inhibitor;Glutamate receptor antagonist;Dopamine uptake inhibitor;AChR antagonist;ChE inhibitor

>  <Receptor>
5-HT3 receptor  ;Sodium channel;NMDA receptor;Sodium-dependent dopamine transporter; Neuronal AChR;ChE

>  <Reference>
1. Fan P, Weight FF. Neuropharmacology. 1994 Dec;33(12):1573-9.

$$$$
98-96-4
  Mrv1561503291623562D          

  9  9  0  0  0  0            999 V2000
    0.0000    0.8250    0.0000 C   0  0  0  0  0  0  0  0  0  0  0  0
    0.7145    1.2375    0.0000 C   0  0  0  0  0  0  0  0  0  0  0  0
    1.4289    0.8250    0.0000 N   0  0  0  0  0  0  0  0  0  0  0  0
    1.4289   -0.0000    0.0000 C   0  0  0  0  0  0  0  0  0  0  0  0
    0.7145   -0.4125    0.0000 C   0  0  0  0  0  0  0  0  0  0  0  0
   -0.0000    0.0000    0.0000 N   0  0  0  0  0  0  0  0  0  0  0  0
    0.7145    2.0625    0.0000 C   0  0  0  0  0  0  0  0  0  0  0  0
    0.0000    2.4750    0.0000 N   0  0  0  0  0  0  0  0  0  0  0  0
    1.4289    2.4750    0.0000 O   0  0  0  0  0  0  0  0  0  0  0  0
  1  2  2  0  0  0  0
  2  3  1  0  0  0  0
  3  4  2  0  0  0  0
  4  5  1  0  0  0  0
  5  6  2  0  0  0  0
  1  6  1  0  0  0  0
  2  7  1  0  0  0  0
  7  8  1  0  0  0  0
  7  9  2  0  0  0  0
M  END
>  <Name>
Pyrazinamide

>  <CAS>
98-96-4

>  <Formula>
C5H5N3O

>  <MolWt>
123.11 

>  <Bioactivity>
Pyrazinamide (Pyrazinoic acid amide) is an agent used to treat tuberculosis. M. tuberculosis has the enzyme pyrazinamidase which is only active in acidic conditions. Pyrazinamidase converts pyrazinamide (Pyrazinoic acid amide) to the active form, pyrazinoic acid which accumulates in the bacilli. Pyrazinoic acid inhibits the enzyme fatty acid synthase (FAS) I, which is required by the bacterium to synthesise fatty acids although this has been discounted.

>  <Pathways>
Enzyme

>  <Target>
FASI inhibitor

>  <Receptor>
FASI

>  <Reference>
1. Zimhony O, et al. Nat Med. 2000 Sep; 6(9):1043-7.

$$$$
T0705
  Mrv1561503291623562D          

 17 17  0  0  0  0            999 V2000
    1.4289    0.8250    0.0000 C   0  0  0  0  0  0  0  0  0  0  0  0
    1.4289    0.0000    0.0000 C   0  0  0  0  0  0  0  0  0  0  0  0
    0.7145   -0.4125    0.0000 C   0  0  0  0  0  0  0  0  0  0  0  0
   -0.0000    0.0000    0.0000 C   0  0  0  0  0  0  0  0  0  0  0  0
   -0.0000    0.8250    0.0000 C   0  0  0  0  0  0  0  0  0  0  0  0
    0.7145    1.2375    0.0000 C   0  0  0  0  0  0  0  0  0  0  0  0
    0.7145    2.0625    0.0000 C   0  0  0  0  0  0  0  0  0  0  0  0
    0.7145    2.8875    0.0000 F   0  0  0  0  0  0  0  0  0  0  0  0
   -0.1105    2.0625    0.0000 F   0  0  0  0  0  0  0  0  0  0  0  0
    1.5395    2.0625    0.0000 F   0  0  0  0  0  0  0  0  0  0  0  0
    0.7145   -1.2375    0.0000 C   0  0  0  0  0  0  0  0  0  0  0  0
    1.4289   -1.6500    0.0000 O   0  0  0  0  0  0  0  0  0  0  0  0
   -0.0000   -1.6500    0.0000 O   0  0  0  0  0  0  0  0  0  0  0  0
    2.1434   -0.4125    0.0000 O   0  0  0  0  0  0  0  0  0  0  0  0
    2.8579    0.0000    0.0000 C   0  0  0  0  0  0  0  0  0  0  0  0
    2.8579    0.8250    0.0000 C   0  0  0  0  0  0  0  0  0  0  0  0
    3.5724   -0.4125    0.0000 O   0  0  0  0  0  0  0  0  0  0  0  0
  1  2  2  0  0  0  0
  2  3  1  0  0  0  0
  3  4  2  0  0  0  0
  4  5  1  0  0  0  0
  5  6  2  0  0  0  0
  1  6  1  0  0  0  0
  6  7  1  0  0  0  0
  7  8  1  0  0  0  0
  7  9  1  0  0  0  0
  7 10  1  0  0  0  0
  3 11  1  0  0  0  0
 11 12  1  0  0  0  0
 11 13  2  0  0  0  0
  2 14  1  0  0  0  0
 14 15  1  0  0  0  0
 15 16  1  0  0  0  0
 15 17  2  0  0  0  0
M  END
>  <Name>
Triflusal

>  <CAS>
322-79-2

>  <Formula>
C10H7F3O4

>  <MolWt>
248.16 

>  <Bioactivity>
Triflusal is a platelet aggregation inhibitor that was discovered and developed in the Uriach Laboratories, and commercialised in Spain since 1981. Currently, it is available in 25 countries in Europe, Asia, Africa and America. It is a drug of the salicylate family but it is not a derivative of acetylsalicylic acid (ASA). 

>  <Pathways>
Angiogenesis; Metabolism

>  <Target>
TXA2 antagonist;PDE inhibitor

>  <Receptor>
PDE;TXA2R

>  <Reference>
1. Alvarez-Sabín J, et al.  Cerebrovasc Dis. 2014;37(3):181-7. 

$$$$
T0717
  Mrv1561503291623562D          

 24 25  0  0  0  0            999 V2000
   -0.4660   -1.8114    0.0000 C   0  0  0  0  0  0  0  0  0  0  0  0
   -1.1804   -1.3989    0.0000 C   0  0  0  0  0  0  0  0  0  0  0  0
   -1.1804   -0.5739    0.0000 N   0  0  0  0  0  0  0  0  0  0  0  0
   -1.8949   -0.1614    0.0000 C   0  0  0  0  0  0  0  0  0  0  0  0
   -1.8949    0.6636    0.0000 C   0  0  0  0  0  0  0  0  0  0  0  0
   -1.1804    1.0761    0.0000 C   0  0  0  0  0  0  0  0  0  0  0  0
   -1.1804    1.9011    0.0000 O   0  0  0  0  0  0  0  0  0  0  0  0
   -0.4660    0.6636    0.0000 C   0  0  0  0  0  0  0  0  0  0  0  0
    0.2485    1.0761    0.0000 C   0  0  0  0  0  0  0  0  0  0  0  0
    0.9630    0.6636    0.0000 C   0  0  0  0  0  0  0  0  0  0  0  0
    0.9630   -0.1614    0.0000 C   0  0  0  0  0  0  0  0  0  0  0  0
    0.2485   -0.5739    0.0000 N   0  0  0  0  0  0  0  0  0  0  0  0
   -0.4660   -0.1614    0.0000 C   0  0  0  0  0  0  0  0  0  0  0  0
    1.6775   -0.5739    0.0000 N   0  0  0  0  0  0  0  0  0  0  0  0
    2.3919   -0.1614    0.0000 C   0  0  0  0  0  0  0  0  0  0  0  0
    3.1064   -0.5739    0.0000 C   0  0  0  0  0  0  0  0  0  0  0  0
    3.1064   -1.3989    0.0000 N   0  0  0  0  0  0  0  0  0  0  0  0
    2.3919   -1.8114    0.0000 C   0  0  0  0  0  0  0  0  0  0  0  0
    1.6775   -1.3989    0.0000 C   0  0  0  0  0  0  0  0  0  0  0  0
    1.6775    1.0761    0.0000 F   0  0  0  0  0  0  0  0  0  0  0  0
   -2.6094    1.0761    0.0000 C   0  0  0  0  0  0  0  0  0  0  0  0
   -3.3238    0.6636    0.0000 O   0  0  0  0  0  0  0  0  0  0  0  0
   -2.6094    1.9011    0.0000 O   0  0  0  0  0  0  0  0  0  0  0  0
    5.4635    0.0000    0.0000 O   0  0  0  0  0  0  0  0  0  0  0  0
  1  2  1  0  0  0  0
  2  3  1  0  0  0  0
  3  4  1  0  0  0  0
  4  5  2  0  0  0  0
  5  6  1  0  0  0  0
  6  7  2  0  0  0  0
  6  8  1  0  0  0  0
  8  9  2  0  0  0  0
  9 10  1  0  0  0  0
 10 11  2  0  0  0  0
 11 12  1  0  0  0  0
 12 13  2  0  0  0  0
  8 13  1  0  0  0  0
  3 13  1  0  0  0  0
 11 14  1  0  0  0  0
 14 15  1  0  0  0  0
 15 16  1  0  0  0  0
 16 17  1  0  0  0  0
 17 18  1  0  0  0  0
 18 19  1  0  0  0  0
 14 19  1  0  0  0  0
 10 20  1  0  0  0  0
  5 21  1  0  0  0  0
 21 22  2  0  0  0  0
 21 23  1  0  0  0  0
M  END
>  <Name>
Enoxacin Sesquihydrate

>  <CAS>
84294-96-2

>  <Formula>
C15H17FN4O3.1/2H2O

>  <MolWt>
320.32 

>  <Bioactivity>
A broad-spectrum 6-fluoronaphthyridinone antibacterial agent that is structurally related to NALIDIXIC ACID. 

>  <Pathways>
DNA Damage/DNA Repair;Microbiology & Virology

>  <Target>
DNA gyrase inhibitor;Topoisomerase inhibitor

>  <Receptor>
DNA gyrase;Topoisomerase II, IV

>  <Reference>
Preissner S, et al. Nucleic Acids Res. 2010 Jan;38(Database issue):D237-43. 

$$$$
T0917
  Mrv1561503291623562D          

 22 23  0  0  0  0            999 V2000
   -0.7145   -0.4125    0.0000 C   0  0  0  0  0  0  0  0  0  0  0  0
   -0.7145   -1.2375    0.0000 C   0  0  0  0  0  0  0  0  0  0  0  0
   -1.4289   -1.6500    0.0000 N   0  0  0  0  0  0  0  0  0  0  0  0
   -2.1434   -1.2375    0.0000 S   0  0  0  0  0  0  0  0  0  0  0  0
   -2.8579   -0.8250    0.0000 O   0  5  0  0  0  0  0  0  0  0  0  0
   -1.7309   -0.5230    0.0000 O   0  0  0  0  0  0  0  0  0  0  0  0
   -2.5559   -1.9520    0.0000 C   0  0  0  0  0  0  0  0  0  0  0  0
   -2.1434   -2.6664    0.0000 C   0  0  0  0  0  0  0  0  0  0  0  0
   -2.5559   -3.3809    0.0000 C   0  0  0  0  0  0  0  0  0  0  0  0
   -3.3809   -3.3809    0.0000 C   0  0  0  0  0  0  0  0  0  0  0  0
   -3.7934   -4.0954    0.0000 N   0  0  0  0  0  0  0  0  0  0  0  0
   -3.7934   -2.6664    0.0000 C   0  0  0  0  0  0  0  0  0  0  0  0
   -3.3809   -1.9520    0.0000 C   0  0  0  0  0  0  0  0  0  0  0  0
   -0.0000   -1.6500    0.0000 N   0  0  0  0  0  0  0  0  0  0  0  0
    0.7145   -1.2375    0.0000 C   0  0  0  0  0  0  0  0  0  0  0  0
    0.7145   -0.4125    0.0000 C   0  0  0  0  0  0  0  0  0  0  0  0
   -0.0000   -0.0000    0.0000 N   0  0  0  0  0  0  0  0  0  0  0  0
    1.4289    0.0000    0.0000 C   0  0  0  0  0  0  0  0  0  0  0  0
    2.1434   -0.4125    0.0000 C   0  0  0  0  0  0  0  0  0  0  0  0
    2.1434   -1.2375    0.0000 C   0  0  0  0  0  0  0  0  0  0  0  0
    1.4289   -1.6500    0.0000 C   0  0  0  0  0  0  0  0  0  0  0  0
   -3.5724   -0.4125    0.0000 Na  0  3  0  0  0  0  0  0  0  0  0  0
  1  2  2  0  0  0  0
  2  3  1  0  0  0  0
  3  4  2  3  0  0  0
  4  5  1  0  0  0  0
  4  6  2  0  0  0  0
  4  7  1  0  0  0  0
  7  8  2  0  0  0  0
  8  9  1  0  0  0  0
  9 10  2  0  0  0  0
 10 11  1  0  0  0  0
 10 12  1  0  0  0  0
 12 13  2  0  0  0  0
  7 13  1  0  0  0  0
  2 14  1  0  0  0  0
 14 15  2  0  0  0  0
 15 16  1  0  0  0  0
 16 17  2  0  0  0  0
  1 17  1  0  0  0  0
 16 18  1  0  0  0  0
 18 19  2  0  0  0  0
 19 20  1  0  0  0  0
 20 21  2  0  0  0  0
 15 21  1  0  0  0  0
M  CHG  2   5  -1  22   1
M  END
>  <Name>
Sulfaquinoxaline sodium

>  <CAS>
967-80-6

>  <Formula>
C14H11N4NaO2S

>  <MolWt>
322.32 

>  <Bioactivity>
Sulfa drugs, used in the treatment of avian coccidiosis

>  <Pathways>
Microbiology & Virology

>  <Target>
Antibiotic

>  <Receptor>
Others

>  <Reference>
All NLM Curated PubMed Citations.

$$$$
7232-21-5
  Mrv1561503291623562D          

 22 20  0  0  0  0            999 V2000
    0.4125    0.0000    0.0000 H   0  3  0  0  0  0  0  0  0  0  0  0
    4.8321   -1.2146    0.0000 C   0  0  0  0  0  0  0  0  0  0  0  0
    4.0071   -1.2146    0.0000 C   0  0  0  0  0  0  0  0  0  0  0  0
    3.5946   -1.9291    0.0000 Cl  0  0  0  0  0  0  0  0  0  0  0  0
    3.5946   -0.5001    0.0000 C   0  0  0  0  0  0  0  0  0  0  0  0
    4.0071    0.2143    0.0000 C   0  0  0  0  0  0  0  0  0  0  0  0
    4.8321    0.2143    0.0000 C   0  0  0  0  0  0  0  0  0  0  0  0
    5.2446   -0.5001    0.0000 C   0  0  0  0  0  0  0  0  0  0  0  0
    6.0696   -0.5001    0.0000 C   0  0  0  0  0  0  0  0  0  0  0  0
    6.4821   -1.2146    0.0000 O   0  0  0  0  0  0  0  0  0  0  0  0
    6.4821    0.2143    0.0000 N   0  0  0  0  0  0  0  0  0  0  0  0
    7.3071    0.2143    0.0000 C   0  0  0  0  0  0  0  0  0  0  0  0
    7.7196    0.9288    0.0000 C   0  0  0  0  0  0  0  0  0  0  0  0
    8.5446    0.9288    0.0000 N   0  0  0  0  0  0  0  0  0  0  0  0
    8.9571    1.6433    0.0000 C   0  0  0  0  0  0  0  0  0  0  0  0
    9.7821    1.6433    0.0000 C   0  0  0  0  0  0  0  0  0  0  0  0
    8.9571    0.2143    0.0000 C   0  0  0  0  0  0  0  0  0  0  0  0
    8.5446   -0.5001    0.0000 C   0  0  0  0  0  0  0  0  0  0  0  0
    5.2446    0.9288    0.0000 O   0  0  0  0  0  0  0  0  0  0  0  0
    6.0696    0.9288    0.0000 C   0  0  0  0  0  0  0  0  0  0  0  0
    2.7696   -0.5001    0.0000 N   0  0  0  0  0  0  0  0  0  0  0  0
   -0.4125    0.0000    0.0000 Cl  0  5  0  0  0  0  0  0  0  0  0  0
  2  3  2  0  0  0  0
  3  4  1  0  0  0  0
  3  5  1  0  0  0  0
  5  6  2  0  0  0  0
  6  7  1  0  0  0  0
  7  8  2  0  0  0  0
  2  8  1  0  0  0  0
  8  9  1  0  0  0  0
  9 10  2  0  0  0  0
  9 11  1  0  0  0  0
 11 12  1  0  0  0  0
 12 13  1  0  0  0  0
 13 14  1  0  0  0  0
 14 15  1  0  0  0  0
 15 16  1  0  0  0  0
 14 17  1  0  0  0  0
 17 18  1  0  0  0  0
  7 19  1  0  0  0  0
 19 20  1  0  0  0  0
  5 21  1  0  0  0  0
M  CHG  2   1   1  22  -1
M  END
>  <Name>
Metoclopramide HCl

>  <CAS>
7232-21-5

>  <Formula>
C14H22ClN3O2·HCl

>  <MolWt>
336.26 

>  <Bioactivity>
Metoclopramide HCl is a selective dopamine D2 receptor antagonist, used for the treatment of nausea and vomiting.

>  <Pathways>
Neuroscience

>  <Target>
5-HT Receptor agonist;AChR antagonist;Dopamine Receptor antagonist

>  <Receptor>
5-HT receptor;Muscarinic AChR;Dopamine receptor

>  <Reference>
1. Burger DM, et al. J Vet Med A Physiol Pathol Clin Med. 2006 Mar;53(2):97-107. 

$$$$
69-09-0
  Mrv1561503291623562D          

 23 23  0  0  0  0            999 V2000
    0.4125    0.0000    0.0000 H   0  3  0  0  0  0  0  0  0  0  0  0
    3.7272    1.3750    0.0000 C   0  0  0  0  0  0  0  0  0  0  0  0
    3.0127    1.7875    0.0000 C   0  0  0  0  0  0  0  0  0  0  0  0
    3.0127    2.6125    0.0000 Cl  0  0  0  0  0  0  0  0  0  0  0  0
    2.2982    1.3750    0.0000 C   0  0  0  0  0  0  0  0  0  0  0  0
    2.2982    0.5500    0.0000 C   0  0  0  0  0  0  0  0  0  0  0  0
    3.0127    0.1375    0.0000 C   0  0  0  0  0  0  0  0  0  0  0  0
    3.7272    0.5500    0.0000 C   0  0  0  0  0  0  0  0  0  0  0  0
    4.4416    0.1375    0.0000 N   0  0  0  0  0  0  0  0  0  0  0  0
    4.4416   -0.6875    0.0000 C   0  0  0  0  0  0  0  0  0  0  0  0
    5.1561   -1.1000    0.0000 C   0  0  0  0  0  0  0  0  0  0  0  0
    5.1561   -1.9250    0.0000 C   0  0  0  0  0  0  0  0  0  0  0  0
    4.4416   -2.3375    0.0000 C   0  0  0  0  0  0  0  0  0  0  0  0
    3.7272   -1.9250    0.0000 C   0  0  0  0  0  0  0  0  0  0  0  0
    3.7272   -1.1000    0.0000 C   0  0  0  0  0  0  0  0  0  0  0  0
    3.0127   -0.6875    0.0000 S   0  0  0  0  0  0  0  0  0  0  0  0
    5.1561    0.5500    0.0000 C   0  0  0  0  0  0  0  0  0  0  0  0
    5.8706    0.1375    0.0000 C   0  0  0  0  0  0  0  0  0  0  0  0
    6.5850    0.5500    0.0000 C   0  0  0  0  0  0  0  0  0  0  0  0
    7.2995    0.1375    0.0000 N   0  0  0  0  0  0  0  0  0  0  0  0
    8.0140    0.5500    0.0000 C   0  0  0  0  0  0  0  0  0  0  0  0
    7.2995   -0.6875    0.0000 C   0  0  0  0  0  0  0  0  0  0  0  0
   -0.4125    0.0000    0.0000 Cl  0  5  0  0  0  0  0  0  0  0  0  0
  2  3  2  0  0  0  0
  3  4  1  0  0  0  0
  3  5  1  0  0  0  0
  5  6  2  0  0  0  0
  6  7  1  0  0  0  0
  7  8  2  0  0  0  0
  2  8  1  0  0  0  0
  8  9  1  0  0  0  0
  9 10  1  0  0  0  0
 10 11  2  0  0  0  0
 11 12  1  0  0  0  0
 12 13  2  0  0  0  0
 13 14  1  0  0  0  0
 14 15  2  0  0  0  0
 10 15  1  0  0  0  0
 15 16  1  0  0  0  0
  7 16  1  0  0  0  0
  9 17  1  0  0  0  0
 17 18  1  0  0  0  0
 18 19  1  0  0  0  0
 19 20  1  0  0  0  0
 20 21  1  0  0  0  0
 20 22  1  0  0  0  0
M  CHG  2   1   1  23  -1
M  END
>  <Name>
Chlorpromazine HCl

>  <CAS>
69-09-0

>  <Formula>
C17H19ClN2S.HCl

>  <MolWt>
355.32 

>  <Bioactivity>
Chlorpromazine HCl is a dopamine and potassium channel inhibitor used as the prototypical phenothiazine antipsychotic drug.

>  <Pathways>
Neuroscience

>  <Target>
Histamine Receptor antagonist;Potassium Channel inhibitor;Dopamine Receptor antagonist;Adrenergic Receptor antagonist;AChR antagonist;5-HT receptor antagonist

>  <Receptor>
Histamine H1 receptor;Potassium Channel ;Dopamine receptor;Adrenergic receptor;Muscarinic AChR;5-HT receptor

>  <Reference>
1. Oades RD, et al. Behav Pharmacol. 2000 Jun;11(3-4):317-30.

$$$$
115-46-8
  Mrv1561503291623562D          

 22 22  0  0  0  0            999 V2000
    0.4125    0.0000    0.0000 H   0  3  0  0  0  0  0  0  0  0  0  0
    5.4877   -1.2375    0.0000 C   0  0  0  0  0  0  0  0  0  0  0  0
    5.4877   -2.0625    0.0000 C   0  0  0  0  0  0  0  0  0  0  0  0
    4.7732   -2.4750    0.0000 C   0  0  0  0  0  0  0  0  0  0  0  0
    4.0587   -2.0625    0.0000 C   0  0  0  0  0  0  0  0  0  0  0  0
    4.0587   -1.2375    0.0000 C   0  0  0  0  0  0  0  0  0  0  0  0
    4.7732   -0.8250    0.0000 C   0  0  0  0  0  0  0  0  0  0  0  0
    4.7732   -0.0000    0.0000 C   0  0  0  0  0  0  0  0  0  0  0  0
    4.7732    0.8250    0.0000 C   0  0  0  0  0  0  0  0  0  0  0  0
    4.0587    1.2375    0.0000 C   0  0  0  0  0  0  0  0  0  0  0  0
    4.0587    2.0625    0.0000 C   0  0  0  0  0  0  0  0  0  0  0  0
    4.7732    2.4750    0.0000 N   0  0  0  0  0  0  0  0  0  0  0  0
    5.4877    2.0625    0.0000 C   0  0  0  0  0  0  0  0  0  0  0  0
    5.4877    1.2375    0.0000 C   0  0  0  0  0  0  0  0  0  0  0  0
    5.5982   -0.0000    0.0000 O   0  0  0  0  0  0  0  0  0  0  0  0
    3.9482    0.0000    0.0000 C   0  0  0  0  0  0  0  0  0  0  0  0
    3.5357   -0.7145    0.0000 C   0  0  0  0  0  0  0  0  0  0  0  0
    2.7107   -0.7145    0.0000 C   0  0  0  0  0  0  0  0  0  0  0  0
    2.2982    0.0000    0.0000 C   0  0  0  0  0  0  0  0  0  0  0  0
    2.7107    0.7145    0.0000 C   0  0  0  0  0  0  0  0  0  0  0  0
    3.5357    0.7145    0.0000 C   0  0  0  0  0  0  0  0  0  0  0  0
   -0.4125    0.0000    0.0000 Cl  0  5  0  0  0  0  0  0  0  0  0  0
  2  3  2  0  0  0  0
  3  4  1  0  0  0  0
  4  5  2  0  0  0  0
  5  6  1  0  0  0  0
  6  7  2  0  0  0  0
  2  7  1  0  0  0  0
  7  8  1  0  0  0  0
  8  9  1  0  0  0  0
  9 10  1  0  0  0  0
 10 11  1  0  0  0  0
 11 12  1  0  0  0  0
 12 13  1  0  0  0  0
 13 14  1  0  0  0  0
  9 14  1  0  0  0  0
  8 15  1  0  0  0  0
  8 16  1  0  0  0  0
 16 17  2  0  0  0  0
 17 18  1  0  0  0  0
 18 19  2  0  0  0  0
 19 20  1  0  0  0  0
 20 21  2  0  0  0  0
 16 21  1  0  0  0  0
M  CHG  2   1   1  22  -1
M  END
>  <Name>
Ataractan

>  <CAS>
115-46-8

>  <Formula>
C18H21NO

>  <MolWt>
267.36 

>  <Bioactivity>
Azacyclonol, also known as ?-pipradol, is a drug used to diminish hallucinations in psychotic individuals.

>  <Pathways>
Neuroscience

>  <Target>
5-HT Receptor antagonist

>  <Receptor>
5-HT Receptor

>  <Reference>
1. Raeissi SD, et al. Pharm Res, 1997, 14(8), 1019-1025.

$$$$
3685-84-5
  Mrv1561503291623562D          

 19 17  0  0  0  0            999 V2000
    0.4125    0.0000    0.0000 H   0  3  0  0  0  0  0  0  0  0  0  0
    4.4416    0.8493    0.0000 C   0  0  0  0  0  0  0  0  0  0  0  0
    4.4416    0.0243    0.0000 C   0  0  0  0  0  0  0  0  0  0  0  0
    5.1561   -0.3882    0.0000 O   0  0  0  0  0  0  0  0  0  0  0  0
    5.8706    0.0243    0.0000 C   0  0  0  0  0  0  0  0  0  0  0  0
    6.5850   -0.3882    0.0000 C   0  0  0  0  0  0  0  0  0  0  0  0
    7.2995    0.0243    0.0000 O   0  0  0  0  0  0  0  0  0  0  0  0
    8.0140   -0.3882    0.0000 C   0  0  0  0  0  0  0  0  0  0  0  0
    8.7285    0.0243    0.0000 C   0  0  0  0  0  0  0  0  0  0  0  0
    9.4429   -0.3882    0.0000 N   0  0  0  0  0  0  0  0  0  0  0  0
   10.1574    0.0243    0.0000 C   0  0  0  0  0  0  0  0  0  0  0  0
    9.4429   -1.2132    0.0000 C   0  0  0  0  0  0  0  0  0  0  0  0
    6.5850   -1.2132    0.0000 O   0  0  0  0  0  0  0  0  0  0  0  0
    3.7272   -0.3882    0.0000 C   0  0  0  0  0  0  0  0  0  0  0  0
    3.0127    0.0243    0.0000 C   0  0  0  0  0  0  0  0  0  0  0  0
    3.0127    0.8493    0.0000 C   0  0  0  0  0  0  0  0  0  0  0  0
    3.7272    1.2618    0.0000 C   0  0  0  0  0  0  0  0  0  0  0  0
    2.2982    1.2618    0.0000 Cl  0  0  0  0  0  0  0  0  0  0  0  0
   -0.4125    0.0000    0.0000 Cl  0  5  0  0  0  0  0  0  0  0  0  0
  2  3  2  0  0  0  0
  3  4  1  0  0  0  0
  4  5  1  0  0  0  0
  5  6  1  0  0  0  0
  6  7  1  0  0  0  0
  7  8  1  0  0  0  0
  8  9  1  0  0  0  0
  9 10  1  0  0  0  0
 10 11  1  0  0  0  0
 10 12  1  0  0  0  0
  6 13  2  0  0  0  0
  3 14  1  0  0  0  0
 14 15  2  0  0  0  0
 15 16  1  0  0  0  0
 16 17  2  0  0  0  0
  2 17  1  0  0  0  0
 16 18  1  0  0  0  0
M  CHG  2   1   1  19  -1
M  END
>  <Name>
Meclofenoxate HCl

>  <CAS>
3685-84-5

>  <Formula>
C12H16ClNO3.HCl

>  <MolWt>
294.17 

>  <Bioactivity>
Meclofenoxate hydrochloride, an ester of dimethylethanolamine (DMAE) and 4-chlorophenoxyacetic acid (pCPA), has been shown to improve memory, have a mentally stimulating effect, and improve general cognition.

>  <Pathways>
Neuroscience

>  <Target>
COX inhibitor;ALOX5 inhibitor

>  <Receptor>
Prostaglandin G/H synthase;ALOX5

>  <Reference>
1. Perez-Vizcaino F, et al. Am J Physiol Lung Cell Mol Physiol. 2002 Oct;283(4):L839-48. 

$$$$
T1142
  Mrv1561503291623562D          

 31 32  0  0  1  0            999 V2000
    2.1434   -2.8875    0.0000 C   0  0  1  0  0  0  0  0  0  0  0  0
    2.8579   -3.3000    0.0000 O   0  0  0  0  0  0  0  0  0  0  0  0
    2.8579   -4.1250    0.0000 C   0  0  2  0  0  0  0  0  0  0  0  0
    3.5724   -4.5375    0.0000 S   0  0  0  0  0  0  0  0  0  0  0  0
    3.5724   -5.3625    0.0000 C   0  0  0  0  0  0  0  0  0  0  0  0
    2.1434   -4.5375    0.0000 C   0  0  2  0  0  0  0  0  0  0  0  0
    2.1434   -5.3625    0.0000 O   0  0  0  0  0  0  0  0  0  0  0  0
    1.4289   -5.7750    0.0000 P   0  0  0  0  0  0  0  0  0  0  0  0
    0.7145   -6.1875    0.0000 O   0  0  0  0  0  0  0  0  0  0  0  0
    1.8414   -6.4895    0.0000 O   0  0  0  0  0  0  0  0  0  0  0  0
    1.0164   -5.0605    0.0000 O   0  0  0  0  0  0  0  0  0  0  0  0
    1.4289   -4.1250    0.0000 C   0  0  1  0  0  0  0  0  0  0  0  0
    0.7145   -4.5375    0.0000 O   0  0  0  0  0  0  0  0  0  0  0  0
    1.4289   -3.3000    0.0000 C   0  0  1  0  0  0  0  0  0  0  0  0
    0.7145   -2.8875    0.0000 O   0  0  0  0  0  0  0  0  0  0  0  0
    2.1434   -2.0625    0.0000 C   0  0  0  0  0  0  0  0  0  0  0  0
    1.4289   -1.6500    0.0000 N   0  0  0  0  0  0  0  0  0  0  0  0
    1.4289   -0.8250    0.0000 C   0  0  0  0  0  0  0  0  0  0  0  0
    2.1434   -0.4125    0.0000 O   0  0  0  0  0  0  0  0  0  0  0  0
    0.7145   -0.4125    0.0000 C   0  0  1  0  0  0  0  0  0  0  0  0
   -0.0392   -0.7481    0.0000 N   0  0  0  0  0  0  0  0  0  0  0  0
   -0.5912   -0.1350    0.0000 C   0  0  0  0  0  0  0  0  0  0  0  0
   -0.1787    0.5795    0.0000 C   0  0  1  0  0  0  0  0  0  0  0  0
    0.6282    0.4080    0.0000 C   0  0  0  0  0  0  0  0  0  0  0  0
   -0.5143    1.3332    0.0000 C   0  0  0  0  0  0  0  0  0  0  0  0
   -0.0294    2.0006    0.0000 C   0  0  0  0  0  0  0  0  0  0  0  0
   -0.3649    2.7543    0.0000 C   0  0  0  0  0  0  0  0  0  0  0  0
   -0.2107   -1.5550    0.0000 C   0  0  0  0  0  0  0  0  0  0  0  0
    2.8579   -1.6500    0.0000 C   0  0  0  0  0  0  0  0  0  0  0  0
    2.8579   -0.8250    0.0000 Cl  0  0  0  0  0  0  0  0  0  0  0  0
    3.5724   -2.0625    0.0000 C   0  0  0  0  0  0  0  0  0  0  0  0
  1  2  1  0  0  0  0
  2  3  1  0  0  0  0
  3  4  1  6  0  0  0
  4  5  1  0  0  0  0
  3  6  1  0  0  0  0
  6  7  1  6  0  0  0
  7  8  1  0  0  0  0
  8  9  2  0  0  0  0
  8 10  1  0  0  0  0
  8 11  1  0  0  0  0
  6 12  1  0  0  0  0
 12 13  1  1  0  0  0
 12 14  1  0  0  0  0
  1 14  1  0  0  0  0
 14 15  1  1  0  0  0
  1 16  1  1  0  0  0
 16 17  1  0  0  0  0
 17 18  1  0  0  0  0
 18 19  2  0  0  0  0
 20 18  1  1  0  0  0
 20 21  1  0  0  0  0
 21 22  1  0  0  0  0
 22 23  1  0  0  0  0
 23 24  1  0  0  0  0
 20 24  1  0  0  0  0
 23 25  1  6  0  0  0
 25 26  1  0  0  0  0
 26 27  1  0  0  0  0
 21 28  1  0  0  0  0
 16 29  1  0  0  0  0
 29 30  1  0  0  0  0
 29 31  1  0  0  0  0
M  END
>  <Name>
Clindamycin phosphate

>  <CAS>
24729-96-2

>  <Formula>
C18H34ClN2O8PS

>  <MolWt>
504.96 

>  <Bioactivity>
Clindamycin Phosphate is a lincosamide antibiotic for Plasmodium falciparum

>  <Pathways>
Microbiology & Virology

>  <Target>
Antibiotic

>  <Receptor>
23S rRNA, 50S ribosomal protein

>  <Reference>
1. Schlunzen F, et al. Nature. 2001 Oct 25;413(6858):814-21.

$$$$
18683-91-5
  Mrv1561503291623562D          

 18 19  0  0  0  0            999 V2000
    2.1434   -2.8875    0.0000 C   0  0  0  0  0  0  0  0  0  0  0  0
    2.1434   -3.7125    0.0000 C   0  0  0  0  0  0  0  0  0  0  0  0
    1.4289   -4.1250    0.0000 C   0  0  0  0  0  0  0  0  0  0  0  0
    0.7145   -3.7125    0.0000 C   0  0  0  0  0  0  0  0  0  0  0  0
    0.7145   -2.8875    0.0000 C   0  0  0  0  0  0  0  0  0  0  0  0
    1.4289   -2.4750    0.0000 C   0  0  0  0  0  0  0  0  0  0  0  0
    1.4289   -1.6500    0.0000 Br  0  0  0  0  0  0  0  0  0  0  0  0
   -0.0000   -4.1250    0.0000 Br  0  0  0  0  0  0  0  0  0  0  0  0
    1.4289   -4.9500    0.0000 N   0  0  0  0  0  0  0  0  0  0  0  0
    2.8579   -4.1250    0.0000 C   0  0  0  0  0  0  0  0  0  0  0  0
    3.5724   -3.7125    0.0000 N   0  0  0  0  0  0  0  0  0  0  0  0
    4.2868   -4.1250    0.0000 C   0  0  0  0  0  0  0  0  0  0  0  0
    5.0013   -3.7125    0.0000 C   0  0  0  0  0  0  0  0  0  0  0  0
    5.7158   -4.1250    0.0000 C   0  0  0  0  0  0  0  0  0  0  0  0
    5.7158   -4.9500    0.0000 C   0  0  0  0  0  0  0  0  0  0  0  0
    6.4302   -5.3625    0.0000 O   0  0  0  0  0  0  0  0  0  0  0  0
    5.0013   -5.3625    0.0000 C   0  0  0  0  0  0  0  0  0  0  0  0
    4.2868   -4.9500    0.0000 C   0  0  0  0  0  0  0  0  0  0  0  0
  1  2  2  0  0  0  0
  2  3  1  0  0  0  0
  3  4  2  0  0  0  0
  4  5  1  0  0  0  0
  5  6  2  0  0  0  0
  1  6  1  0  0  0  0
  6  7  1  0  0  0  0
  4  8  1  0  0  0  0
  3  9  1  0  0  0  0
  2 10  1  0  0  0  0
 10 11  1  0  0  0  0
 11 12  1  0  0  0  0
 12 13  1  0  0  0  0
 13 14  1  0  0  0  0
 14 15  1  0  0  0  0
 15 16  1  0  0  0  0
 15 17  1  0  0  0  0
 17 18  1  0  0  0  0
 12 18  1  0  0  0  0
M  END
>  <Name>
Ambroxol

>  <CAS>
18683-91-5

>  <Formula>
C13H18Br2N2O

>  <MolWt>
378.10 

>  <Bioactivity>
Ambroxol is indicated as "secretolytic therapy in bronchopulmonary diseases associated with abnormal mucus secretion and impaired mucus transport. It promotes mucus clearance, facilitates expectoration and eases productive cough, allowing patients to breathe freely and deeply.

>  <Pathways>
Metabolism

>  <Target>
CYP inhibitor

>  <Receptor>
CYP3A

>  <Reference>
1. Preissner S, et al. Nucleic Acids Res. 2010, 38(Database issue):D237-43.

$$$$
62-31-7
  Mrv1561503291623562D          

 13 11  0  0  0  0            999 V2000
    0.4125    0.0000    0.0000 H   0  3  0  0  0  0  0  0  0  0  0  0
    4.4416    0.7875    0.0000 C   0  0  0  0  0  0  0  0  0  0  0  0
    4.4416   -0.0375    0.0000 C   0  0  0  0  0  0  0  0  0  0  0  0
    3.7272   -0.4500    0.0000 C   0  0  0  0  0  0  0  0  0  0  0  0
    3.0127   -0.0375    0.0000 C   0  0  0  0  0  0  0  0  0  0  0  0
    3.0127    0.7875    0.0000 C   0  0  0  0  0  0  0  0  0  0  0  0
    3.7272    1.2000    0.0000 C   0  0  0  0  0  0  0  0  0  0  0  0
    3.7272    2.0250    0.0000 O   0  0  0  0  0  0  0  0  0  0  0  0
    2.2982    1.2000    0.0000 O   0  0  0  0  0  0  0  0  0  0  0  0
    3.7272   -1.2750    0.0000 C   0  0  0  0  0  0  0  0  0  0  0  0
    3.0127   -1.6875    0.0000 C   0  0  0  0  0  0  0  0  0  0  0  0
    3.0127   -2.5125    0.0000 N   0  0  0  0  0  0  0  0  0  0  0  0
   -0.4125    0.0000    0.0000 Cl  0  5  0  0  0  0  0  0  0  0  0  0
  2  3  2  0  0  0  0
  3  4  1  0  0  0  0
  4  5  2  0  0  0  0
  5  6  1  0  0  0  0
  6  7  2  0  0  0  0
  2  7  1  0  0  0  0
  7  8  1  0  0  0  0
  6  9  1  0  0  0  0
  4 10  1  0  0  0  0
 10 11  1  0  0  0  0
 11 12  1  0  0  0  0
M  CHG  2   1   1  13  -1
M  END
>  <Name>
Dopamine HCl

>  <CAS>
62-31-7

>  <Formula>
C8H12ClNO2

>  <MolWt>
189.64 

>  <Bioactivity>
One of the catecholamine NEUROTRANSMITTERS in the brain. Dopamine hydrochloride is derived from TYROSINE and is the precursor to NOREPINEPHRINE and EPINEPHRINE. Dopamine is a major transmitter in the extrapyramidal system of the brain, and important in regulating movement. A family of receptors (RECEPTORS, DOPAMINE) mediate its action.


>  <Pathways>
Neuroscience

>  <Target>
5-HT receptor antagonist;Dopamine Receptor agonist;Dopamine uptake inhibitor

>  <Receptor>
5-HT receptor ;Dopamine receptor;Sodium-dependent dopamine transporter

>  <Reference>
1. Ostadali MR, et al . Iran J Allergy Asthma Immunol. 2004 Dec;3(4):169-74.

$$$$
T0814
  Mrv1561503291623562D          

 27 26  0  0  1  0            999 V2000
   -1.4223    1.2504    0.0000 C   0  0  1  0  0  0  0  0  0  0  0  0
   -2.2192    1.0369    0.0000 N   0  0  0  0  0  0  0  0  0  0  0  0
   -0.8389    0.6671    0.0000 C   0  0  0  0  0  0  0  0  0  0  0  0
   -0.0420    0.8806    0.0000 O   0  0  0  0  0  0  0  0  0  0  0  0
   -1.0524   -0.1298    0.0000 N   0  0  0  0  0  0  0  0  0  0  0  0
   -0.4691   -0.7132    0.0000 C   0  0  1  0  0  0  0  0  0  0  0  0
    0.3559   -0.7132    0.0000 C   0  0  1  0  0  0  0  0  0  0  0  0
    1.1405   -0.4582    0.0000 S   0  0  0  0  0  0  0  0  0  0  0  0
    1.6255   -1.1257    0.0000 C   0  0  0  0  0  0  0  0  0  0  0  0
    2.2386   -0.5736    0.0000 C   0  0  0  0  0  0  0  0  0  0  0  0
    2.2386   -1.6777    0.0000 C   0  0  0  0  0  0  0  0  0  0  0  0
    1.1405   -1.7931    0.0000 C   0  0  2  0  0  0  0  0  0  0  0  0
    1.3955   -2.5777    0.0000 C   0  0  0  0  0  0  0  0  0  0  0  0
    2.2024   -2.7493    0.0000 O   0  0  0  0  0  0  0  0  0  0  0  0
    0.8434   -3.1908    0.0000 O   0  0  0  0  0  0  0  0  0  0  0  0
    0.3559   -1.5382    0.0000 N   0  0  0  0  0  0  0  0  0  0  0  0
   -0.4691   -1.5382    0.0000 C   0  0  0  0  0  0  0  0  0  0  0  0
   -1.0524   -2.1215    0.0000 O   0  0  0  0  0  0  0  0  0  0  0  0
   -1.2088    2.0473    0.0000 C   0  0  0  0  0  0  0  0  0  0  0  0
   -1.7921    2.6307    0.0000 C   0  0  0  0  0  0  0  0  0  0  0  0
   -1.5786    3.4276    0.0000 C   0  0  0  0  0  0  0  0  0  0  0  0
   -0.7817    3.6411    0.0000 C   0  0  0  0  0  0  0  0  0  0  0  0
   -0.1983    3.0577    0.0000 C   0  0  0  0  0  0  0  0  0  0  0  0
   -0.4119    2.2609    0.0000 C   0  0  0  0  0  0  0  0  0  0  0  0
    4.5957    0.0000    0.0000 O   0  0  0  0  0  0  0  0  0  0  0  0
    0.0000   -4.8408    0.0000 O   0  0  0  0  0  0  0  0  0  0  0  0
    2.3571   -4.8408    0.0000 O   0  0  0  0  0  0  0  0  0  0  0  0
  1  2  1  6  0  0  0
  1  3  1  0  0  0  0
  3  4  2  0  0  0  0
  3  5  1  0  0  0  0
  6  5  1  1  0  0  0
  6  7  1  0  0  0  0
  7  8  1  0  0  0  0
  8  9  1  0  0  0  0
  9 10  1  0  0  0  0
  9 11  1  0  0  0  0
  9 12  1  0  0  0  0
 12 13  1  6  0  0  0
 13 14  2  0  0  0  0
 13 15  1  0  0  0  0
 12 16  1  0  0  0  0
  7 16  1  1  0  0  0
 16 17  1  0  0  0  0
  6 17  1  0  0  0  0
 17 18  2  0  0  0  0
  1 19  1  0  0  0  0
 19 20  2  0  0  0  0
 20 21  1  0  0  0  0
 21 22  2  0  0  0  0
 22 23  1  0  0  0  0
 23 24  2  0  0  0  0
 19 24  1  0  0  0  0
M  END
>  <Name>
Ampicillin Trihydrate 

>  <CAS>
7177-48-2

>  <Formula>
C16H19N3O4S.3H2O

>  <MolWt>
403.45 

>  <Bioactivity>
Ampicillin Trihydrate is a ?-lactam antibiotic, which inhibits bacterial cell-wall synthesis (peptidoglycan cross-linking) by inactivating transpeptidases on the inner surface of the bacterial cell membrane

>  <Pathways>
Microbiology & Virology

>  <Target>
Antibiotic

>  <Receptor>
?-Lactamase

>  <Reference>
1. Lacy MK, et al. Antimicrob Agents Chemother, 1999, 43(3), 672-677.

$$$$
T0138
  Mrv1561503291623562D          

 43 46  0  0  1  0            999 V2000
    1.6905   -0.1510    0.0000 C   0  0  0  0  0  0  0  0  0  0  0  0
    2.4049    0.2615    0.0000 S   0  0  0  0  0  0  0  0  0  0  0  0
    3.1194   -0.1510    0.0000 C   0  0  0  0  0  0  0  0  0  0  0  0
    3.1194   -0.9760    0.0000 C   0  0  0  0  0  0  0  0  0  0  0  0
    2.4049   -1.3885    0.0000 C   0  0  0  0  0  0  0  0  0  0  0  0
    1.6905   -0.9760    0.0000 N   0  0  0  0  0  0  0  0  0  0  0  0
    0.8655   -0.9760    0.0000 C   0  0  0  0  0  0  0  0  0  0  0  0
    0.2821   -1.5593    0.0000 O   0  0  0  0  0  0  0  0  0  0  0  0
    0.8655   -0.1510    0.0000 C   0  0  0  0  0  0  0  0  0  0  0  0
    0.2821    0.4324    0.0000 N   0  0  0  0  0  0  0  0  0  0  0  0
   -0.5148    0.2189    0.0000 C   0  0  0  0  0  0  0  0  0  0  0  0
   -0.7283   -0.5780    0.0000 O   0  0  0  0  0  0  0  0  0  0  0  0
   -1.0982    0.8022    0.0000 C   0  0  0  0  0  0  0  0  0  0  0  0
   -1.8950    0.5887    0.0000 N   0  0  0  0  0  0  0  0  0  0  0  0
   -2.4784    1.1721    0.0000 C   0  0  0  0  0  0  0  0  0  0  0  0
   -2.2649    1.9689    0.0000 O   0  0  0  0  0  0  0  0  0  0  0  0
   -3.2753    0.9585    0.0000 C   0  0  0  0  0  0  0  0  0  0  0  0
   -3.4888    0.1616    0.0000 C   0  0  0  0  0  0  0  0  0  0  0  0
   -4.2857   -0.0519    0.0000 N   0  0  0  0  0  0  0  0  0  0  0  0
   -4.8691    0.5315    0.0000 C   0  0  0  0  0  0  0  0  0  0  0  0
   -4.6556    1.3284    0.0000 C   0  0  0  0  0  0  0  0  0  0  0  0
   -3.8587    1.5419    0.0000 C   0  0  0  0  0  0  0  0  0  0  0  0
   -3.6451    2.3388    0.0000 O   0  0  0  0  0  0  0  0  0  0  0  0
   -5.6660    0.3179    0.0000 C   0  0  0  0  0  0  0  0  0  0  0  0
   -0.8846    1.5991    0.0000 C   0  0  0  0  0  0  0  0  0  0  0  0
   -1.4680    2.1825    0.0000 C   0  0  0  0  0  0  0  0  0  0  0  0
   -1.2545    2.9794    0.0000 C   0  0  0  0  0  0  0  0  0  0  0  0
   -0.4576    3.1929    0.0000 C   0  0  0  0  0  0  0  0  0  0  0  0
   -0.2441    3.9898    0.0000 O   0  0  0  0  0  0  0  0  0  0  0  0
    0.1258    2.6095    0.0000 C   0  0  0  0  0  0  0  0  0  0  0  0
   -0.0877    1.8126    0.0000 C   0  0  0  0  0  0  0  0  0  0  0  0
    2.4049   -2.2135    0.0000 C   0  0  0  0  0  0  0  0  0  0  0  0
    1.6905   -2.6260    0.0000 O   0  5  0  0  0  0  0  0  0  0  0  0
    3.1194   -2.6260    0.0000 O   0  0  0  0  0  0  0  0  0  0  0  0
    3.8339   -1.3885    0.0000 C   0  0  0  0  0  0  0  0  0  0  0  0
    4.5483   -0.9760    0.0000 S   0  0  0  0  0  0  0  0  0  0  0  0
    5.2628   -1.3885    0.0000 C   0  0  0  0  0  0  0  0  0  0  0  0
    6.0165   -1.0529    0.0000 N   0  0  0  0  0  0  0  0  0  0  0  0
    6.5685   -1.6660    0.0000 N   0  0  0  0  0  0  0  0  0  0  0  0
    6.1560   -2.3805    0.0000 N   0  0  0  0  0  0  0  0  0  0  0  0
    5.3490   -2.2090    0.0000 N   0  0  0  0  0  0  0  0  0  0  0  0
    4.7360   -2.7610    0.0000 C   0  0  0  0  0  0  0  0  0  0  0  0
    0.9760   -3.0385    0.0000 Na  0  3  0  0  0  0  0  0  0  0  0  0
  1  2  1  0  0  0  0
  2  3  1  0  0  0  0
  3  4  1  0  0  0  0
  4  5  2  0  0  0  0
  5  6  1  0  0  0  0
  1  6  1  0  0  0  0
  6  7  1  0  0  0  0
  7  8  2  0  0  0  0
  7  9  1  0  0  0  0
  1  9  1  0  0  0  0
  9 10  1  0  0  0  0
 10 11  1  0  0  0  0
 11 12  2  0  0  0  0
 11 13  1  0  0  0  0
 13 14  1  0  0  0  0
 14 15  1  0  0  0  0
 15 16  2  0  0  0  0
 15 17  1  0  0  0  0
 17 18  2  0  0  0  0
 18 19  1  0  0  0  0
 19 20  1  0  0  0  0
 20 21  2  0  0  0  0
 21 22  1  0  0  0  0
 17 22  1  0  0  0  0
 22 23  2  0  0  0  0
 20 24  1  0  0  0  0
 13 25  1  0  0  0  0
 25 26  2  0  0  0  0
 26 27  1  0  0  0  0
 27 28  2  0  0  0  0
 28 29  1  0  0  0  0
 28 30  1  0  0  0  0
 30 31  2  0  0  0  0
 25 31  1  0  0  0  0
  5 32  1  0  0  0  0
 32 33  1  0  0  0  0
 32 34  2  0  0  0  0
  4 35  1  0  0  0  0
 35 36  1  0  0  0  0
 36 37  1  0  0  0  0
 37 38  2  0  0  0  0
 38 39  1  0  0  0  0
 39 40  2  0  0  0  0
 40 41  1  0  0  0  0
 37 41  1  0  0  0  0
 41 42  1  0  0  0  0
M  CHG  2  33  -1  43   1
M  END
>  <Name>
Cefpiramide acid

>  <CAS>
70797-11-4

>  <Formula>
C25H24N8O7S2

>  <MolWt>
612.64 

>  <Bioactivity>
Cefpiramide is a third-generation cephalosporin antibiotic. 

>  <Pathways>
Microbiology & Virology

>  <Target>
Antibiotic

>  <Receptor>
PBPs

>  <Reference>
1. Fass RJ, Helsel VL. Diagn Microbiol Infect Dis. 1986 Jan;4(1):77-81.

$$$$
2753-45-9
  Mrv1561503291623562D          

 33 32  0  0  0  0            999 V2000
    0.4125    0.0000    0.0000 H   0  3  0  0  0  0  0  0  0  0  0  0
    5.6275    0.5589    0.0000 C   0  0  0  0  0  0  0  0  0  0  0  0
    5.6275   -0.2661    0.0000 C   0  0  0  0  0  0  0  0  0  0  0  0
    6.3420   -0.6786    0.0000 C   0  0  0  0  0  0  0  0  0  0  0  0
    7.0565   -0.2661    0.0000 C   0  0  0  0  0  0  0  0  0  0  0  0
    7.7709   -0.6786    0.0000 N   0  0  0  0  0  0  0  0  0  0  0  0
    8.4854   -0.2661    0.0000 C   0  0  0  0  0  0  0  0  0  0  0  0
    9.1999   -0.6786    0.0000 C   0  0  0  0  0  0  0  0  0  0  0  0
    9.9144   -0.2661    0.0000 C   0  0  0  0  0  0  0  0  0  0  0  0
   10.6288   -0.6786    0.0000 C   0  0  0  0  0  0  0  0  0  0  0  0
   11.3433   -0.2661    0.0000 O   0  0  0  0  0  0  0  0  0  0  0  0
   12.0578   -0.6786    0.0000 C   0  0  0  0  0  0  0  0  0  0  0  0
   12.0578   -1.5036    0.0000 O   0  0  0  0  0  0  0  0  0  0  0  0
   12.7722   -0.2661    0.0000 C   0  0  0  0  0  0  0  0  0  0  0  0
   12.7722    0.5589    0.0000 C   0  0  0  0  0  0  0  0  0  0  0  0
   13.4867    0.9714    0.0000 C   0  0  0  0  0  0  0  0  0  0  0  0
   14.2012    0.5589    0.0000 C   0  0  0  0  0  0  0  0  0  0  0  0
   14.9156    0.9714    0.0000 O   0  0  0  0  0  0  0  0  0  0  0  0
   15.6301    0.5589    0.0000 C   0  0  0  0  0  0  0  0  0  0  0  0
   14.2012   -0.2661    0.0000 C   0  0  0  0  0  0  0  0  0  0  0  0
   13.4867   -0.6786    0.0000 C   0  0  0  0  0  0  0  0  0  0  0  0
   13.4867    1.7964    0.0000 O   0  0  0  0  0  0  0  0  0  0  0  0
   14.2012    2.2089    0.0000 C   0  0  0  0  0  0  0  0  0  0  0  0
    7.7709   -1.5036    0.0000 C   0  0  0  0  0  0  0  0  0  0  0  0
    8.4854   -1.9161    0.0000 C   0  0  0  0  0  0  0  0  0  0  0  0
    7.0565    0.5589    0.0000 C   0  0  0  0  0  0  0  0  0  0  0  0
    4.9131   -0.6786    0.0000 C   0  0  0  0  0  0  0  0  0  0  0  0
    4.1986   -0.2661    0.0000 C   0  0  0  0  0  0  0  0  0  0  0  0
    4.1986    0.5589    0.0000 C   0  0  0  0  0  0  0  0  0  0  0  0
    4.9131    0.9714    0.0000 C   0  0  0  0  0  0  0  0  0  0  0  0
    3.4841    0.9714    0.0000 O   0  0  0  0  0  0  0  0  0  0  0  0
    2.7696    0.5589    0.0000 C   0  0  0  0  0  0  0  0  0  0  0  0
   -0.4125    0.0000    0.0000 Cl  0  5  0  0  0  0  0  0  0  0  0  0
  2  3  2  0  0  0  0
  3  4  1  0  0  0  0
  4  5  1  0  0  0  0
  5  6  1  0  0  0  0
  6  7  1  0  0  0  0
  7  8  1  0  0  0  0
  8  9  1  0  0  0  0
  9 10  1  0  0  0  0
 10 11  1  0  0  0  0
 11 12  1  0  0  0  0
 12 13  2  0  0  0  0
 12 14  1  0  0  0  0
 14 15  2  0  0  0  0
 15 16  1  0  0  0  0
 16 17  2  0  0  0  0
 17 18  1  0  0  0  0
 18 19  1  0  0  0  0
 17 20  1  0  0  0  0
 20 21  2  0  0  0  0
 14 21  1  0  0  0  0
 16 22  1  0  0  0  0
 22 23  1  0  0  0  0
  6 24  1  0  0  0  0
 24 25  1  0  0  0  0
  5 26  1  0  0  0  0
  3 27  1  0  0  0  0
 27 28  2  0  0  0  0
 28 29  1  0  0  0  0
 29 30  2  0  0  0  0
  2 30  1  0  0  0  0
 29 31  1  0  0  0  0
 31 32  1  0  0  0  0
M  CHG  2   1   1  33  -1
M  END
>  <Name>
Mebeverine HCl

>  <CAS>
2753-45-9

>  <Formula>
C25H36ClNO5

>  <MolWt>
466.01 

>  <Bioactivity>
Mebeverine is a drug whose major therapeutic role is in the treatment of irritable bowel syndrome (IBS) and the associated abdominal cramping. It works by relaxing the muscles in and around the gut. It is a musculotropic antispasmodic drug without anticholinergic side-effects. The drug is also indicated for treatment of gastrointestinal spasm secondary to organic disorder.

>  <Pathways>
Others

>  <Target>
Others

>  <Receptor>
Others

>  <Reference>
1. Rahman MZ, et al. Mymensingh Med J. 2014 Jan;23(1):105-13.

$$$$
34552-83-5
  Mrv1561503291623562D          

 36 37  0  0  0  0            999 V2000
    0.4125    0.0000    0.0000 H   0  3  0  0  0  0  0  0  0  0  0  0
    3.8252    2.9442    0.0000 C   0  0  0  0  0  0  0  0  0  0  0  0
    3.1107    2.5317    0.0000 C   0  0  0  0  0  0  0  0  0  0  0  0
    3.1107    1.7067    0.0000 C   0  0  0  0  0  0  0  0  0  0  0  0
    2.2982    1.8500    0.0000 O   0  0  0  0  0  0  0  0  0  0  0  0
    3.9231    1.8500    0.0000 C   0  0  0  0  0  0  0  0  0  0  0  0
    4.4534    1.2180    0.0000 C   0  0  0  0  0  0  0  0  0  0  0  0
    4.1713    0.4428    0.0000 N   0  0  0  0  0  0  0  0  0  0  0  0
    3.3588    0.2995    0.0000 C   0  0  0  0  0  0  0  0  0  0  0  0
    2.8285    0.9315    0.0000 C   0  0  0  0  0  0  0  0  0  0  0  0
    4.7016   -0.1892    0.0000 C   0  0  0  0  0  0  0  0  0  0  0  0
    4.4194   -0.9645    0.0000 C   0  0  0  0  0  0  0  0  0  0  0  0
    4.9497   -1.5965    0.0000 C   0  0  0  0  0  0  0  0  0  0  0  0
    5.4800   -2.2284    0.0000 C   0  0  0  0  0  0  0  0  0  0  0  0
    6.2925   -2.0852    0.0000 C   0  0  0  0  0  0  0  0  0  0  0  0
    6.8228   -2.7172    0.0000 C   0  0  0  0  0  0  0  0  0  0  0  0
    6.5406   -3.4924    0.0000 C   0  0  0  0  0  0  0  0  0  0  0  0
    5.7281   -3.6357    0.0000 C   0  0  0  0  0  0  0  0  0  0  0  0
    5.1978   -3.0037    0.0000 C   0  0  0  0  0  0  0  0  0  0  0  0
    5.5817   -1.0662    0.0000 C   0  0  0  0  0  0  0  0  0  0  0  0
    5.4384   -0.2537    0.0000 C   0  0  0  0  0  0  0  0  0  0  0  0
    6.0704    0.2766    0.0000 C   0  0  0  0  0  0  0  0  0  0  0  0
    6.8457   -0.0056    0.0000 C   0  0  0  0  0  0  0  0  0  0  0  0
    6.9889   -0.8180    0.0000 C   0  0  0  0  0  0  0  0  0  0  0  0
    6.3569   -1.3483    0.0000 C   0  0  0  0  0  0  0  0  0  0  0  0
    4.3177   -2.1268    0.0000 C   0  0  0  0  0  0  0  0  0  0  0  0
    4.4610   -2.9392    0.0000 O   0  0  0  0  0  0  0  0  0  0  0  0
    3.5425   -1.8446    0.0000 N   0  0  0  0  0  0  0  0  0  0  0  0
    3.3992   -1.0321    0.0000 C   0  0  0  0  0  0  0  0  0  0  0  0
    2.9105   -2.3749    0.0000 C   0  0  0  0  0  0  0  0  0  0  0  0
    2.3962    2.9442    0.0000 C   0  0  0  0  0  0  0  0  0  0  0  0
    2.3962    3.7692    0.0000 C   0  0  0  0  0  0  0  0  0  0  0  0
    3.1107    4.1817    0.0000 C   0  0  0  0  0  0  0  0  0  0  0  0
    3.8252    3.7692    0.0000 C   0  0  0  0  0  0  0  0  0  0  0  0
    3.1107    5.0067    0.0000 Cl  0  0  0  0  0  0  0  0  0  0  0  0
   -0.4125    0.0000    0.0000 Cl  0  5  0  0  0  0  0  0  0  0  0  0
  2  3  2  0  0  0  0
  3  4  1  0  0  0  0
  4  5  1  0  0  0  0
  4  6  1  0  0  0  0
  6  7  1  0  0  0  0
  7  8  1  0  0  0  0
  8  9  1  0  0  0  0
  9 10  1  0  0  0  0
  4 10  1  0  0  0  0
  8 11  1  0  0  0  0
 11 12  1  0  0  0  0
 12 13  1  0  0  0  0
 13 14  1  0  0  0  0
 14 15  2  0  0  0  0
 15 16  1  0  0  0  0
 16 17  2  0  0  0  0
 17 18  1  0  0  0  0
 18 19  2  0  0  0  0
 14 19  1  0  0  0  0
 13 20  1  0  0  0  0
 20 21  2  0  0  0  0
 21 22  1  0  0  0  0
 22 23  2  0  0  0  0
 23 24  1  0  0  0  0
 24 25  2  0  0  0  0
 20 25  1  0  0  0  0
 13 26  1  0  0  0  0
 26 27  2  0  0  0  0
 26 28  1  0  0  0  0
 28 29  1  0  0  0  0
 28 30  1  0  0  0  0
  3 31  1  0  0  0  0
 31 32  2  0  0  0  0
 32 33  1  0  0  0  0
 33 34  2  0  0  0  0
  2 34  1  0  0  0  0
 33 35  1  0  0  0  0
M  CHG  2   1   1  36  -1
M  END
>  <Name>
Loperamide HCl

>  <CAS>
34552-83-5

>  <Formula>
C29H34Cl2N2O2

>  <MolWt>
513.51 

>  <Bioactivity>
One of the long-acting synthetic ANTIDIARRHEALS; it is not significantly absorbed from the gut, and has no effect on the adrenergic system or central nervous system, but may antagonize histamine and interfere with acetylcholine release locally. 

>  <Pathways>
Membrane Transporter/Ion Channel; Neuroscience

>  <Target>
Calcium Channel;Calmodulin inhibitor;Opioid Receptor agonist

>  <Receptor>
Calcium Channel;Calmodulin;Opioid receptor;Pro-opiomelanocortin

>  <Reference>
1. DeHaven-Hudkins DL, et al. J Pharmacol Exp Ther. 1999 Apr;289(1):494-502.

$$$$
5560-59-8
  Mrv1561503291623562D          

 34 34  0  0  0  0            999 V2000
    0.1547   -0.4629    0.0000 C   0  0  0  0  0  0  0  0  0  0  0  0
   -0.2578    0.2516    0.0000 C   0  0  0  0  0  0  0  0  0  0  0  0
    0.4567    0.6641    0.0000 C   0  0  0  0  0  0  0  0  0  0  0  0
    1.1711    0.2516    0.0000 C   0  0  0  0  0  0  0  0  0  0  0  0
    1.8856    0.6641    0.0000 O   0  0  0  0  0  0  0  0  0  0  0  0
    1.1711   -0.5734    0.0000 O   0  0  0  0  0  0  0  0  0  0  0  0
   -0.6703    0.9660    0.0000 C   0  0  0  0  0  0  0  0  0  0  0  0
   -1.4953    0.9660    0.0000 O   0  0  0  0  0  0  0  0  0  0  0  0
   -0.2578    1.6805    0.0000 O   0  0  0  0  0  0  0  0  0  0  0  0
   -0.9723   -0.1609    0.0000 O   0  0  0  0  0  0  0  0  0  0  0  0
   -0.2578   -1.1774    0.0000 C   0  0  0  0  0  0  0  0  0  0  0  0
    0.1547   -1.8918    0.0000 O   0  0  0  0  0  0  0  0  0  0  0  0
   -1.0828   -1.1774    0.0000 O   0  0  0  0  0  0  0  0  0  0  0  0
    5.2003   -0.5696    0.0000 C   0  0  0  0  0  0  0  0  0  0  0  0
    4.4858   -0.9821    0.0000 C   0  0  0  0  0  0  0  0  0  0  0  0
    3.7713   -0.5696    0.0000 C   0  0  0  0  0  0  0  0  0  0  0  0
    3.7713    0.2554    0.0000 C   0  0  0  0  0  0  0  0  0  0  0  0
    4.4858    0.6679    0.0000 C   0  0  0  0  0  0  0  0  0  0  0  0
    5.2003    0.2554    0.0000 C   0  0  0  0  0  0  0  0  0  0  0  0
    5.9147    0.6679    0.0000 C   0  0  0  0  0  0  0  0  0  0  0  0
    6.6292    0.2554    0.0000 C   0  0  0  0  0  0  0  0  0  0  0  0
    7.3437    0.6679    0.0000 C   0  0  0  0  0  0  0  0  0  0  0  0
    8.0582    0.2554    0.0000 N   0  0  0  0  0  0  0  0  0  0  0  0
    8.7726    0.6679    0.0000 C   0  0  0  0  0  0  0  0  0  0  0  0
    9.4871    0.2554    0.0000 C   0  0  0  0  0  0  0  0  0  0  0  0
   10.2016    0.6679    0.0000 C   0  0  0  0  0  0  0  0  0  0  0  0
   10.9160    0.2554    0.0000 C   0  0  0  0  0  0  0  0  0  0  0  0
   11.6305    0.6679    0.0000 C   0  0  0  0  0  0  0  0  0  0  0  0
   12.3450    0.2554    0.0000 C   0  0  0  0  0  0  0  0  0  0  0  0
   12.3450   -0.5696    0.0000 C   0  0  0  0  0  0  0  0  0  0  0  0
   11.6305   -0.9821    0.0000 C   0  0  0  0  0  0  0  0  0  0  0  0
   10.9160   -0.5696    0.0000 C   0  0  0  0  0  0  0  0  0  0  0  0
    8.0582   -0.5696    0.0000 C   0  0  0  0  0  0  0  0  0  0  0  0
    8.7726   -0.9821    0.0000 C   0  0  0  0  0  0  0  0  0  0  0  0
  1  2  1  0  0  0  0
  2  3  1  0  0  0  0
  3  4  1  0  0  0  0
  4  5  1  0  0  0  0
  4  6  2  0  0  0  0
  2  7  1  0  0  0  0
  7  8  1  0  0  0  0
  7  9  2  0  0  0  0
  2 10  1  0  0  0  0
  1 11  1  0  0  0  0
 11 12  1  0  0  0  0
 11 13  2  0  0  0  0
 14 15  2  0  0  0  0
 15 16  1  0  0  0  0
 16 17  2  0  0  0  0
 17 18  1  0  0  0  0
 18 19  2  0  0  0  0
 14 19  1  0  0  0  0
 19 20  1  0  0  0  0
 20 21  1  0  0  0  0
 21 22  1  0  0  0  0
 22 23  1  0  0  0  0
 23 24  1  0  0  0  0
 24 25  1  0  0  0  0
 25 26  1  0  0  0  0
 26 27  1  0  0  0  0
 27 28  2  0  0  0  0
 28 29  1  0  0  0  0
 29 30  2  0  0  0  0
 30 31  1  0  0  0  0
 31 32  2  0  0  0  0
 27 32  1  0  0  0  0
 23 33  1  0  0  0  0
 33 34  1  0  0  0  0
M  END
>  <Name>
Alverine citrate

>  <CAS>
5560-59-8

>  <Formula>
C26H35NO7

>  <MolWt>
473.57 

>  <Bioactivity>
Alverine citrate is a drug used for functional gastrointestinal disorders.

>  <Pathways>
Neuroscience

>  <Target>
5-HT Receptor antagonist

>  <Receptor>
5-HT Receptor

>  <Reference>
1. Coelho AM, et al. J Pharm Pharmacol. 2001 Oct; 53(10):1419-26.

$$$$
76-90-4
  Mrv1561503291623562D          

 26 27  0  0  0  0            999 V2000
    1.2052   -1.9558    0.0000 C   0  0  0  0  0  0  0  0  0  0  0  0
    1.2052   -2.7808    0.0000 C   0  0  0  0  0  0  0  0  0  0  0  0
    0.4907   -3.1933    0.0000 C   0  0  0  0  0  0  0  0  0  0  0  0
   -0.2238   -2.7808    0.0000 C   0  0  0  0  0  0  0  0  0  0  0  0
   -0.2238   -1.9558    0.0000 C   0  0  0  0  0  0  0  0  0  0  0  0
    0.4907   -1.5433    0.0000 C   0  0  0  0  0  0  0  0  0  0  0  0
    0.4907   -0.7183    0.0000 C   0  0  0  0  0  0  0  0  0  0  0  0
    0.4907    0.1067    0.0000 C   0  0  0  0  0  0  0  0  0  0  0  0
   -0.2238    0.5192    0.0000 O   0  0  0  0  0  0  0  0  0  0  0  0
   -0.2238    1.3442    0.0000 C   0  0  0  0  0  0  0  0  0  0  0  0
   -0.9383    1.7567    0.0000 C   0  0  0  0  0  0  0  0  0  0  0  0
   -0.9383    2.5817    0.0000 C   0  0  0  0  0  0  0  0  0  0  0  0
   -0.2238    2.9942    0.0000 C   0  0  0  0  0  0  0  0  0  0  0  0
    0.4907    2.5817    0.0000 N   0  3  0  0  0  0  0  0  0  0  0  0
    0.7729    3.3570    0.0000 C   0  0  0  0  0  0  0  0  0  0  0  0
    1.3032    2.4385    0.0000 C   0  0  0  0  0  0  0  0  0  0  0  0
    0.4907    1.7567    0.0000 C   0  0  0  0  0  0  0  0  0  0  0  0
    1.2052    0.5192    0.0000 O   0  0  0  0  0  0  0  0  0  0  0  0
    1.3157   -0.7183    0.0000 O   0  0  0  0  0  0  0  0  0  0  0  0
   -0.3343   -0.7183    0.0000 C   0  0  0  0  0  0  0  0  0  0  0  0
   -0.7468   -1.4328    0.0000 C   0  0  0  0  0  0  0  0  0  0  0  0
   -1.5718   -1.4328    0.0000 C   0  0  0  0  0  0  0  0  0  0  0  0
   -1.9843   -0.7183    0.0000 C   0  0  0  0  0  0  0  0  0  0  0  0
   -1.5718   -0.0038    0.0000 C   0  0  0  0  0  0  0  0  0  0  0  0
   -0.7468   -0.0038    0.0000 C   0  0  0  0  0  0  0  0  0  0  0  0
    3.6728    0.0000    0.0000 Br  0  5  0  0  0  0  0  0  0  0  0  0
  1  2  2  0  0  0  0
  2  3  1  0  0  0  0
  3  4  2  0  0  0  0
  4  5  1  0  0  0  0
  5  6  2  0  0  0  0
  1  6  1  0  0  0  0
  6  7  1  0  0  0  0
  7  8  1  0  0  0  0
  8  9  1  0  0  0  0
  9 10  1  0  0  0  0
 10 11  1  0  0  0  0
 11 12  1  0  0  0  0
 12 13  1  0  0  0  0
 13 14  1  0  0  0  0
 14 15  1  0  0  0  0
 14 16  1  0  0  0  0
 14 17  1  0  0  0  0
 10 17  1  0  0  0  0
  8 18  2  0  0  0  0
  7 19  1  0  0  0  0
  7 20  1  0  0  0  0
 20 21  2  0  0  0  0
 21 22  1  0  0  0  0
 22 23  2  0  0  0  0
 23 24  1  0  0  0  0
 24 25  2  0  0  0  0
 20 25  1  0  0  0  0
M  CHG  2  14   1  26  -1
M  END
>  <Name>
Mepenzolate Bromide

>  <CAS>
76-90-4

>  <Formula>
C21H26BrNO3

>  <MolWt>
420.34 

>  <Bioactivity>
Mepenzolate is a post-ganglionic parasympathetic inhibitor. It decreases gastric acid and pepsin secretion and suppresses spontaneous contractions of the colon. Mepenzolate diminishes gastric acid and pepsin secretion. Mepenzolate also suppresses spontaneous contractions of the colon. Pharmacologically, it is a post-ganglionic parasympathetic inhibitor. It has not been shown to be effective in contributing to the healing of peptic ulcer, decreasing the rate of recurrence, or preventing complications.

>  <Pathways>
Neuroscience

>  <Target>
AChR antagonist

>  <Receptor>
Muscarinic AChR

>  <Reference>
1. Tsai CS, et al. J Ethnopharmacol. 1995 Mar;45(3):215-22.

$$$$
6620-60-6
  Mrv1561503291623562D          

 24 24  0  0  0  0            999 V2000
   -0.7954   -6.0474    0.0000 C   0  0  0  0  0  0  0  0  0  0  0  0
   -0.3829   -5.3329    0.0000 C   0  0  0  0  0  0  0  0  0  0  0  0
   -0.7954   -4.6184    0.0000 C   0  0  0  0  0  0  0  0  0  0  0  0
   -1.6204   -4.6184    0.0000 N   0  0  0  0  0  0  0  0  0  0  0  0
   -2.0329   -3.9039    0.0000 C   0  0  0  0  0  0  0  0  0  0  0  0
   -2.8579   -3.9039    0.0000 C   0  0  0  0  0  0  0  0  0  0  0  0
   -3.2704   -3.1895    0.0000 N   0  0  0  0  0  0  0  0  0  0  0  0
   -4.0954   -3.1895    0.0000 C   0  0  0  0  0  0  0  0  0  0  0  0
   -4.5079   -2.4750    0.0000 C   0  0  0  0  0  0  0  0  0  0  0  0
   -5.3329   -2.4750    0.0000 C   0  0  0  0  0  0  0  0  0  0  0  0
   -2.8579   -2.4750    0.0000 C   0  0  0  0  0  0  0  0  0  0  0  0
   -3.2704   -1.7605    0.0000 C   0  0  0  0  0  0  0  0  0  0  0  0
   -2.8579   -1.0461    0.0000 C   0  0  0  0  0  0  0  0  0  0  0  0
   -3.2704   -4.6184    0.0000 O   0  0  0  0  0  0  0  0  0  0  0  0
   -1.6204   -3.1895    0.0000 C   0  0  0  0  0  0  0  0  0  0  0  0
   -0.7954   -3.1895    0.0000 C   0  0  0  0  0  0  0  0  0  0  0  0
   -0.3829   -2.4750    0.0000 C   0  0  0  0  0  0  0  0  0  0  0  0
   -0.7954   -1.7605    0.0000 O   0  0  0  0  0  0  0  0  0  0  0  0
    0.4421   -2.4750    0.0000 O   0  0  0  0  0  0  0  0  0  0  0  0
   -0.3829   -3.9039    0.0000 O   0  0  0  0  0  0  0  0  0  0  0  0
    0.4421   -5.3329    0.0000 C   0  0  0  0  0  0  0  0  0  0  0  0
    0.8546   -6.0474    0.0000 C   0  0  0  0  0  0  0  0  0  0  0  0
    0.4421   -6.7618    0.0000 C   0  0  0  0  0  0  0  0  0  0  0  0
   -0.3829   -6.7618    0.0000 C   0  0  0  0  0  0  0  0  0  0  0  0
  1  2  2  0  0  0  0
  2  3  1  0  0  0  0
  3  4  1  0  0  0  0
  4  5  1  0  0  0  0
  5  6  1  0  0  0  0
  6  7  1  0  0  0  0
  7  8  1  0  0  0  0
  8  9  1  0  0  0  0
  9 10  1  0  0  0  0
  7 11  1  0  0  0  0
 11 12  1  0  0  0  0
 12 13  1  0  0  0  0
  6 14  2  0  0  0  0
  5 15  1  0  0  0  0
 15 16  1  0  0  0  0
 16 17  1  0  0  0  0
 17 18  1  0  0  0  0
 17 19  2  0  0  0  0
  3 20  2  0  0  0  0
  2 21  1  0  0  0  0
 21 22  2  0  0  0  0
 22 23  1  0  0  0  0
 23 24  2  0  0  0  0
  1 24  1  0  0  0  0
M  END
>  <Name>
Proglumide

>  <CAS>
6620-60-6

>  <Formula>
C18H26N2O4

>  <MolWt>
334.42 

>  <Bioactivity>
Proglumide (Milid) is a drug that inhibits gastrointestinal motility and reduces gastric secretions. It acts as a cholecystokinin antagonist, which blocks both the CCKA and CCKB subtypes. It was used mainly in the treatment of stomach ulcers. 

>  <Pathways>
Metabolism

>  <Target>
CCK antagonist

>  <Receptor>
CCK

>  <Reference>
1. Bunney BS,et al. Ann N Y Acad Sci. 1985;448:345-51.

$$$$
562-10-7
  Mrv1561503291623562D          

 28 28  0  0  0  0            999 V2000
   -0.0608   -1.3406    0.0000 C   0  0  0  0  0  0  0  0  0  0  0  0
   -0.0608   -2.1656    0.0000 C   0  0  0  0  0  0  0  0  0  0  0  0
   -0.7753   -2.5781    0.0000 C   0  0  0  0  0  0  0  0  0  0  0  0
   -1.4897   -2.1656    0.0000 C   0  0  0  0  0  0  0  0  0  0  0  0
   -1.4897   -1.3406    0.0000 N   0  0  0  0  0  0  0  0  0  0  0  0
   -0.7753   -0.9281    0.0000 C   0  0  0  0  0  0  0  0  0  0  0  0
   -0.7753   -0.1031    0.0000 C   0  0  0  0  0  0  0  0  0  0  0  0
   -0.7753    0.7219    0.0000 O   0  0  0  0  0  0  0  0  0  0  0  0
   -0.0608    1.1344    0.0000 C   0  0  0  0  0  0  0  0  0  0  0  0
   -0.0608    1.9594    0.0000 C   0  0  0  0  0  0  0  0  0  0  0  0
    0.6537    2.3719    0.0000 N   0  0  0  0  0  0  0  0  0  0  0  0
    0.6537    3.1969    0.0000 C   0  0  0  0  0  0  0  0  0  0  0  0
    1.3682    1.9594    0.0000 C   0  0  0  0  0  0  0  0  0  0  0  0
    0.0497   -0.1031    0.0000 C   0  0  0  0  0  0  0  0  0  0  0  0
    0.4622    0.6113    0.0000 C   0  0  0  0  0  0  0  0  0  0  0  0
    1.2872    0.6113    0.0000 C   0  0  0  0  0  0  0  0  0  0  0  0
    1.6997   -0.1031    0.0000 C   0  0  0  0  0  0  0  0  0  0  0  0
    1.2872   -0.8176    0.0000 C   0  0  0  0  0  0  0  0  0  0  0  0
    0.4622   -0.8176    0.0000 C   0  0  0  0  0  0  0  0  0  0  0  0
   -1.6003   -0.1031    0.0000 C   0  0  0  0  0  0  0  0  0  0  0  0
    4.8965   -0.2063    0.0000 C   0  0  0  0  0  0  0  0  0  0  0  0
    4.1821    0.2062    0.0000 C   0  0  0  0  0  0  0  0  0  0  0  0
    3.4676   -0.2063    0.0000 O   0  0  0  0  0  0  0  0  0  0  0  0
    4.1821    1.0312    0.0000 O   0  0  0  0  0  0  0  0  0  0  0  0
    5.6110    0.2063    0.0000 C   0  0  0  0  0  0  0  0  0  0  0  0
    6.3255   -0.2062    0.0000 C   0  0  0  0  0  0  0  0  0  0  0  0
    7.0400    0.2063    0.0000 O   0  0  0  0  0  0  0  0  0  0  0  0
    6.3255   -1.0312    0.0000 O   0  0  0  0  0  0  0  0  0  0  0  0
  1  2  2  0  0  0  0
  2  3  1  0  0  0  0
  3  4  2  0  0  0  0
  4  5  1  0  0  0  0
  5  6  2  0  0  0  0
  1  6  1  0  0  0  0
  6  7  1  0  0  0  0
  7  8  1  0  0  0  0
  8  9  1  0  0  0  0
  9 10  1  0  0  0  0
 10 11  1  0  0  0  0
 11 12  1  0  0  0  0
 11 13  1  0  0  0  0
  7 14  1  0  0  0  0
 14 15  2  0  0  0  0
 15 16  1  0  0  0  0
 16 17  2  0  0  0  0
 17 18  1  0  0  0  0
 18 19  2  0  0  0  0
 14 19  1  0  0  0  0
  7 20  1  0  0  0  0
 21 22  1  0  0  0  0
 22 23  2  0  0  0  0
 22 24  1  0  0  0  0
 21 25  1  0  0  0  0
 25 26  1  0  0  0  0
 26 27  2  0  0  0  0
 26 28  1  0  0  0  0
M  END
>  <Name>
Doxylamine succinate

>  <CAS>
562-10-7

>  <Formula>
C21H28N2O5

>  <MolWt>
388.46 

>  <Bioactivity>
Doxylamine succinate competitively inhibits histamine at H1 receptors with substantial sedative and anticholinergic effects.

>  <Pathways>
Neuroscience

>  <Target>
Histamine Receptor antagonist

>  <Receptor>
Histamine H1 receptor

>  <Reference>
1. Bookstaff RC, et al. Toxicol Appl Pharmacol, 1996, 141(2), 584-594.

$$$$
162011-90-7
  Mrv1561503291623562D          

 22 24  0  0  0  0            999 V2000
   -0.0000   -0.0000    0.0000 C   0  0  0  0  0  0  0  0  0  0  0  0
   -0.0000    0.8250    0.0000 C   0  0  0  0  0  0  0  0  0  0  0  0
    0.7145    1.2375    0.0000 C   0  0  0  0  0  0  0  0  0  0  0  0
    1.4289    0.8250    0.0000 C   0  0  0  0  0  0  0  0  0  0  0  0
    1.4289    0.0000    0.0000 C   0  0  0  0  0  0  0  0  0  0  0  0
    0.7145   -0.4125    0.0000 C   0  0  0  0  0  0  0  0  0  0  0  0
    0.7145   -1.2375    0.0000 C   0  0  0  0  0  0  0  0  0  0  0  0
    1.3819   -1.7224    0.0000 C   0  0  0  0  0  0  0  0  0  0  0  0
    2.1665   -1.4675    0.0000 C   0  0  0  0  0  0  0  0  0  0  0  0
    2.3381   -0.6605    0.0000 C   0  0  0  0  0  0  0  0  0  0  0  0
    3.1227   -0.4056    0.0000 C   0  0  0  0  0  0  0  0  0  0  0  0
    3.7358   -0.9576    0.0000 C   0  0  0  0  0  0  0  0  0  0  0  0
    3.5642   -1.7646    0.0000 C   0  0  0  0  0  0  0  0  0  0  0  0
    2.7796   -2.0195    0.0000 C   0  0  0  0  0  0  0  0  0  0  0  0
    1.1270   -2.5070    0.0000 C   0  0  0  0  0  0  0  0  0  0  0  0
    1.6119   -3.1745    0.0000 O   0  0  0  0  0  0  0  0  0  0  0  0
    0.3020   -2.5070    0.0000 O   0  0  0  0  0  0  0  0  0  0  0  0
    0.0470   -1.7224    0.0000 C   0  0  0  0  0  0  0  0  0  0  0  0
    0.7145    2.0625    0.0000 S   0  0  0  0  0  0  0  0  0  0  0  0
    0.7145    2.8875    0.0000 C   0  0  0  0  0  0  0  0  0  0  0  0
    1.5395    2.0625    0.0000 O   0  0  0  0  0  0  0  0  0  0  0  0
   -0.1105    2.0625    0.0000 O   0  0  0  0  0  0  0  0  0  0  0  0
  1  2  2  0  0  0  0
  2  3  1  0  0  0  0
  3  4  2  0  0  0  0
  4  5  1  0  0  0  0
  5  6  2  0  0  0  0
  1  6  1  0  0  0  0
  6  7  1  0  0  0  0
  7  8  2  0  0  0  0
  8  9  1  0  0  0  0
  9 10  2  0  0  0  0
 10 11  1  0  0  0  0
 11 12  2  0  0  0  0
 12 13  1  0  0  0  0
 13 14  2  0  0  0  0
  9 14  1  0  0  0  0
  8 15  1  0  0  0  0
 15 16  2  0  0  0  0
 15 17  1  0  0  0  0
 17 18  1  0  0  0  0
  7 18  1  0  0  0  0
  3 19  1  0  0  0  0
 19 20  1  0  0  0  0
 19 21  2  0  0  0  0
 19 22  2  0  0  0  0
M  END
>  <Name>
Rofecoxib

>  <CAS>
162011-90-7

>  <Formula>
C17H14O4S

>  <MolWt>
314.36 

>  <Bioactivity>
Rofecoxib is used for the treatment of osteoarthritis, rheumatoid arthritis, acute pain in adults, and primary dysmenorrhea, as well as acute treatment of migraine attacks with or without auras. Rofecoxib is a solid. This compound belongs to the stilbenes. These are organic compounds containing a 1,2-diphenylethylene moiety. Stilbenes (C6-C2-C6 ) are derived from the common phenylpropene (C6-C3) skeleton building block. The introduction of one or more hydroxyl groups to a phenyl ring lead to stilbenoids. Rofecoxib has a half-life of 17 hours and its mean oral bioavailability at therapeutically recommended doses of 125, 25, and 50 mg is approximately 93%. The proteins that rofecoxib target include elastin and prostaglandin G/H synthase 2. Cytochrome P450 1A2, Cytochrome P450 3A4, Cytochrome P450 2C9, Cytochrome P450 2C8, and Prostaglandin G/H synthase 1 are known to metabolize rofecoxib. On September 30, 2004, Merck voluntarily withdrew rofecoxib from the market because of concerns about increased risk of heart attack and stroke associated with long-term, high-dosage use. 

>  <Pathways>
Neuroscience

>  <Target>
COX inhibitor;Elastin;MRP inhibitor

>  <Receptor>
Prostaglandin G/H synthase 2;Elastin;MRAP4

>  <Reference>
1. Ehrich EW, et al. J Rheumatol. 1999 Nov; 26(11):2438-47.

$$$$
1077-28-7
  Mrv1561503291623562D          

 12 12  0  0  0  0            999 V2000
    1.0396   -1.0396    0.0000 C   0  0  0  0  0  0  0  0  0  0  0  0
    0.3251   -0.6271    0.0000 C   0  0  0  0  0  0  0  0  0  0  0  0
   -0.4286   -0.9626    0.0000 C   0  0  0  0  0  0  0  0  0  0  0  0
   -0.9806   -0.3495    0.0000 C   0  0  0  0  0  0  0  0  0  0  0  0
   -0.5681    0.3649    0.0000 S   0  0  0  0  0  0  0  0  0  0  0  0
    0.2389    0.1934    0.0000 S   0  0  0  0  0  0  0  0  0  0  0  0
    1.7540   -0.6271    0.0000 C   0  0  0  0  0  0  0  0  0  0  0  0
    2.4685   -1.0396    0.0000 C   0  0  0  0  0  0  0  0  0  0  0  0
    3.1830   -0.6271    0.0000 C   0  0  0  0  0  0  0  0  0  0  0  0
    3.8974   -1.0396    0.0000 C   0  0  0  0  0  0  0  0  0  0  0  0
    4.6119   -0.6271    0.0000 O   0  0  0  0  0  0  0  0  0  0  0  0
    3.8974   -1.8646    0.0000 O   0  0  0  0  0  0  0  0  0  0  0  0
  1  2  1  0  0  0  0
  2  3  1  0  0  0  0
  3  4  1  0  0  0  0
  4  5  1  0  0  0  0
  5  6  1  0  0  0  0
  2  6  1  0  0  0  0
  1  7  1  0  0  0  0
  7  8  1  0  0  0  0
  8  9  1  0  0  0  0
  9 10  1  0  0  0  0
 10 11  1  0  0  0  0
 10 12  2  0  0  0  0
M  END
>  <Name>
Thioctic acid

>  <CAS>
1077-28-7

>  <Formula>
C8H14O2S2

>  <MolWt>
206.33 

>  <Bioactivity>
THIOOCTIC ACID, a natural product, is reported to have antioxidative property.

>  <Pathways>
Vitamin

>  <Target>
Others

>  <Receptor>
Multivitamin uptake inhibitor

>  <Reference>
1. Ning-Ping Foo, et al. Toxicology Volume 282, Issues 1–2, 28 March 2011, Pages 39–46

$$$$
63675-72-9
  Mrv1561503291623562D          

 28 29  0  0  0  0            999 V2000
   -2.8579    1.6500    0.0000 C   0  0  0  0  0  0  0  0  0  0  0  0
   -3.5724    1.2375    0.0000 C   0  0  0  0  0  0  0  0  0  0  0  0
   -3.5724    0.4125    0.0000 C   0  0  0  0  0  0  0  0  0  0  0  0
   -2.8579    0.0000    0.0000 C   0  0  0  0  0  0  0  0  0  0  0  0
   -2.8579   -0.8250    0.0000 C   0  0  0  0  0  0  0  0  0  0  0  0
   -3.5724   -1.2375    0.0000 N   0  0  0  0  0  0  0  0  0  0  0  0
   -4.2868   -0.8250    0.0000 C   0  0  0  0  0  0  0  0  0  0  0  0
   -4.2868    0.0000    0.0000 C   0  0  0  0  0  0  0  0  0  0  0  0
   -4.7538    0.6600    0.0000 C   0  0  0  0  0  0  0  0  0  0  0  0
   -5.7158    0.0000    0.0000 O   0  0  0  0  0  0  0  0  0  0  0  0
   -6.4302    0.4125    0.0000 C   0  0  0  0  0  0  0  0  0  0  0  0
   -4.7538    1.4850    0.0000 O   0  0  0  0  0  0  0  0  0  0  0  0
   -5.0013   -1.2375    0.0000 C   0  0  0  0  0  0  0  0  0  0  0  0
   -2.1434   -1.2375    0.0000 C   0  0  0  0  0  0  0  0  0  0  0  0
   -2.1434    0.4125    0.0000 C   0  0  0  0  0  0  0  0  0  0  0  0
   -1.4289    0.0000    0.0000 O   0  0  0  0  0  0  0  0  0  0  0  0
   -0.7145    0.4125    0.0000 C   0  0  0  0  0  0  0  0  0  0  0  0
    0.0000    0.0000    0.0000 C   0  0  0  0  0  0  0  0  0  0  0  0
    0.7145    0.4125    0.0000 C   0  0  0  0  0  0  0  0  0  0  0  0
   -0.0000   -0.8250    0.0000 C   0  0  0  0  0  0  0  0  0  0  0  0
   -2.1434    1.2375    0.0000 O   0  0  0  0  0  0  0  0  0  0  0  0
   -4.2868    1.6500    0.0000 C   0  0  0  0  0  0  0  0  0  0  0  0
   -4.2868    2.4750    0.0000 C   0  0  0  0  0  0  0  0  0  0  0  0
   -3.5724    2.8875    0.0000 C   0  0  0  0  0  0  0  0  0  0  0  0
   -2.8579    2.4750    0.0000 C   0  0  0  0  0  0  0  0  0  0  0  0
   -5.0013    1.2375    0.0000 N   0  3  0  0  0  0  0  0  0  0  0  0
   -5.7158    1.6500    0.0000 O   0  0  0  0  0  0  0  0  0  0  0  0
   -5.0013    0.4125    0.0000 O   0  5  0  0  0  0  0  0  0  0  0  0
  1  2  2  0  0  0  0
  2  3  1  0  0  0  0
  3  4  1  0  0  0  0
  4  5  2  0  0  0  0
  5  6  1  0  0  0  0
  6  7  1  0  0  0  0
  7  8  2  0  0  0  0
  3  8  1  0  0  0  0
  8  9  1  0  0  0  0
  9 10  1  0  0  0  0
 10 11  1  0  0  0  0
  9 12  2  0  0  0  0
  7 13  1  0  0  0  0
  5 14  1  0  0  0  0
  4 15  1  0  0  0  0
 15 16  1  0  0  0  0
 16 17  1  0  0  0  0
 17 18  1  0  0  0  0
 18 19  1  0  0  0  0
 18 20  1  0  0  0  0
 15 21  2  0  0  0  0
  2 22  1  0  0  0  0
 22 23  2  0  0  0  0
 23 24  1  0  0  0  0
 24 25  2  0  0  0  0
  1 25  1  0  0  0  0
 22 26  1  0  0  0  0
 26 27  2  0  0  0  0
 26 28  1  0  0  0  0
M  CHG  2  26   1  28  -1
M  END
>  <Name>
Nisoldipine

>  <CAS>
63675-72-9

>  <Formula>
C20H24N2O6

>  <MolWt>
388.41 

>  <Bioactivity>
A dihydropyridine calcium channel antagonist that acts as a potent arterial vasodilator and antihypertensive agent. It is also effective in patients with cardiac failure and angina.

>  <Pathways>
Membrane Transporter/Ion Channel

>  <Target>
Calcium Channel inhibitor

>  <Receptor>
Calcium Channel

>  <Reference>
1. Morel N, et al. Br J Pharmacol, 1998, 125(5), 1005-1012.

$$$$
541-15-1
  Mrv1561503291623562D          

 11 10  0  0  0  0            999 V2000
    1.2375    0.7145    0.0000 C   0  0  0  0  0  0  0  0  0  0  0  0
    0.8250    1.4289    0.0000 N   0  3  0  0  0  0  0  0  0  0  0  0
    0.4125    2.1434    0.0000 C   0  0  0  0  0  0  0  0  0  0  0  0
    0.1105    1.0164    0.0000 C   0  0  0  0  0  0  0  0  0  0  0  0
    1.5395    1.8414    0.0000 C   0  0  0  0  0  0  0  0  0  0  0  0
    0.8250    0.0000    0.0000 C   0  0  0  0  0  0  0  0  0  0  0  0
    1.2375   -0.7145    0.0000 C   0  0  0  0  0  0  0  0  0  0  0  0
    0.8250   -1.4289    0.0000 C   0  0  0  0  0  0  0  0  0  0  0  0
    1.2375   -2.1434    0.0000 O   0  0  0  0  0  0  0  0  0  0  0  0
    0.0000   -1.4289    0.0000 O   0  5  0  0  0  0  0  0  0  0  0  0
    0.0000    0.0000    0.0000 O   0  0  0  0  0  0  0  0  0  0  0  0
  1  2  1  0  0  0  0
  2  3  1  0  0  0  0
  2  4  1  0  0  0  0
  2  5  1  0  0  0  0
  1  6  1  0  0  0  0
  6  7  1  0  0  0  0
  7  8  1  0  0  0  0
  8  9  2  0  0  0  0
  8 10  1  0  0  0  0
  6 11  1  0  0  0  0
M  CHG  2   2   1  10  -1
M  END
>  <Name>
L(-)-Carnitine

>  <CAS>
541-15-1

>  <Formula>
C7H15NO3

>  <MolWt>
161.20 

>  <Bioactivity>
Actions Carnitine is a quaternary amine that occurs naturally in most mammalian tissue. It is present in relatively high concentrations in skeletal muscle and heart where it is involved in regulating energy metabolism. It shifts glucose metabolism from g

>  <Pathways>
Metabolism

>  <Target>
Fatty acid carrier

>  <Receptor>
Fatty acid

>  <Reference>
1. Jogl G, Tong L. Cell. 2003 Jan 10; 112(1):113-22. 

$$$$
T0194
  Mrv1561503291623562D          

 32 31  0  0  0  0            999 V2000
   -1.9640    0.5103    0.0000 C   0  0  0  0  0  0  0  0  0  0  0  0
   -2.7741    0.6662    0.0000 C   0  0  0  0  0  0  0  0  0  0  0  0
   -3.3142    0.0425    0.0000 C   0  0  0  0  0  0  0  0  0  0  0  0
   -3.0441   -0.7370    0.0000 C   0  0  0  0  0  0  0  0  0  0  0  0
   -2.2340   -0.8929    0.0000 C   0  0  0  0  0  0  0  0  0  0  0  0
   -1.6939   -0.2693    0.0000 C   0  0  0  0  0  0  0  0  0  0  0  0
   -0.8838   -0.4252    0.0000 C   0  0  0  0  0  0  0  0  0  0  0  0
   -0.6137   -1.2048    0.0000 C   0  0  0  0  0  0  0  0  0  0  0  0
   -1.1538   -1.8284    0.0000 C   0  0  0  0  0  0  0  0  0  0  0  0
   -1.9640   -1.6725    0.0000 N   0  0  0  0  0  0  0  0  0  0  0  0
   -0.3437    0.1984    0.0000 N   0  0  0  0  0  0  0  0  0  0  0  0
    0.4664    0.0425    0.0000 C   0  0  0  0  0  0  0  0  0  0  0  0
    1.0065    0.6662    0.0000 C   0  0  0  0  0  0  0  0  0  0  0  0
    1.8167    0.5103    0.0000 C   0  0  0  0  0  0  0  0  0  0  0  0
    2.3568    1.1339    0.0000 C   0  0  0  0  0  0  0  0  0  0  0  0
    3.1669    0.9780    0.0000 N   0  0  0  0  0  0  0  0  0  0  0  0
    3.7070    1.6016    0.0000 C   0  0  0  0  0  0  0  0  0  0  0  0
    4.5171    1.4457    0.0000 C   0  0  0  0  0  0  0  0  0  0  0  0
    3.4369    0.1984    0.0000 C   0  0  0  0  0  0  0  0  0  0  0  0
    2.8968   -0.4252    0.0000 C   0  0  0  0  0  0  0  0  0  0  0  0
    0.7365   -0.7370    0.0000 C   0  0  0  0  0  0  0  0  0  0  0  0
   -4.1243    0.1984    0.0000 Cl  0  0  0  0  0  0  0  0  0  0  0  0
    7.2278   -0.8250    0.0000 O   0  0  0  0  0  0  0  0  0  0  0  0
    7.2278    0.0000    0.0000 P   0  0  0  0  0  0  0  0  0  0  0  0
    7.2278    0.8250    0.0000 O   0  0  0  0  0  0  0  0  0  0  0  0
    8.0528   -0.0000    0.0000 O   0  0  0  0  0  0  0  0  0  0  0  0
    6.4028    0.0000    0.0000 O   0  0  0  0  0  0  0  0  0  0  0  0
    0.0000   -5.1284    0.0000 O   0  0  0  0  0  0  0  0  0  0  0  0
    0.0000   -4.3034    0.0000 P   0  0  0  0  0  0  0  0  0  0  0  0
    0.0000   -3.4784    0.0000 O   0  0  0  0  0  0  0  0  0  0  0  0
    0.8250   -4.3034    0.0000 O   0  0  0  0  0  0  0  0  0  0  0  0
   -0.8250   -4.3034    0.0000 O   0  0  0  0  0  0  0  0  0  0  0  0
  1  2  2  0  0  0  0
  2  3  1  0  0  0  0
  3  4  2  0  0  0  0
  4  5  1  0  0  0  0
  5  6  2  0  0  0  0
  1  6  1  0  0  0  0
  6  7  1  0  0  0  0
  7  8  2  0  0  0  0
  8  9  1  0  0  0  0
  9 10  2  0  0  0  0
  5 10  1  0  0  0  0
  7 11  1  0  0  0  0
 11 12  1  0  0  0  0
 12 13  1  0  0  0  0
 13 14  1  0  0  0  0
 14 15  1  0  0  0  0
 15 16  1  0  0  0  0
 16 17  1  0  0  0  0
 17 18  1  0  0  0  0
 16 19  1  0  0  0  0
 19 20  1  0  0  0  0
 12 21  1  0  0  0  0
  3 22  1  0  0  0  0
 23 24  2  0  0  0  0
 24 25  1  0  0  0  0
 24 26  1  0  0  0  0
 24 27  1  0  0  0  0
 28 29  2  0  0  0  0
 29 30  1  0  0  0  0
 29 31  1  0  0  0  0
 29 32  1  0  0  0  0
M  END
>  <Name>
Chloroquine diphosphate

>  <CAS>
50-63-5

>  <Formula>
C18H26CLN3.2(H3PO4)

>  <MolWt>
515.87 

>  <Bioactivity>
Chloroquine diphosphate is used as an antimalarial drug and also functions to increase sensitivity of tumor cells to radiation and chemotherapy via inducing autophagy [1]. Chloroquine diphosphate has been reported as an adjuvant for radiation and chemotherapy for inducing cell autophagy to anti-cancer cells proliferation or metastasis [2]. The mechanism of chloroquine diphosphate inducing cells autophagy is arresting cells in G1, up-regulates the expression of p27 and p53 while down-regulates the expression of CDK2 and cyclin D1 [3]. Apart from anti-malarial, chloroquine diphosphate also has long been reported functioning in cell apoptosis. Pretreated CNE-2 human nasopharyngeal carcinoma cells with chloroquine diphosphate enhanced ionizing radiation induced cell apoptosis via increasing cells autophagic ratio [4]. When treated with mouse breast cancer 4T1 cells, chloroquine diphosphate treatment inhibited cellular proliferation and viability which resulted in cells apoptosis in a time- and dose- dependent manner [2]. In human colon cancer DLD-1 cells, combination of 5-FU and chloroquine diphosphate could inhibit cells proliferation via inducing autophagy

>  <Pathways>
Ubiquitination;PI3K/Akt/mTOR Signaling

>  <Target>
Autophagy inhibitor;ATM/ATR activator

>  <Receptor>
Autophagy;ATM

>  <Reference>
1. Gewirtz, D.A. Biochem Pharmacol, 2014. 90(3): 208-11.

$$$$
6035-45-6
  Mrv1561503291623562D          

 40 36  0  0  1  0            999 V2000
    0.0000    0.0000    0.0000 Ca  0  0  0  0  0  0  0  0  0  0  0  0
   11.6453    0.8978    0.0000 C   0  0  1  0  0  0  0  0  0  0  0  0
   10.9308    0.4853    0.0000 N   0  0  0  0  0  0  0  0  0  0  0  0
   10.2163    0.8978    0.0000 C   0  0  0  0  0  0  0  0  0  0  0  0
   10.2163    1.7228    0.0000 O   0  0  0  0  0  0  0  0  0  0  0  0
    9.5019    0.4853    0.0000 C   0  0  0  0  0  0  0  0  0  0  0  0
    9.5019   -0.3397    0.0000 C   0  0  0  0  0  0  0  0  0  0  0  0
    8.7874   -0.7522    0.0000 C   0  0  0  0  0  0  0  0  0  0  0  0
    8.0729   -0.3397    0.0000 C   0  0  0  0  0  0  0  0  0  0  0  0
    7.3584   -0.7522    0.0000 N   0  0  0  0  0  0  0  0  0  0  0  0
    6.6440   -0.3397    0.0000 C   0  0  0  0  0  0  0  0  0  0  0  0
    5.9295   -0.7522    0.0000 C   0  0  0  0  0  0  0  0  0  0  0  0
    5.2150   -0.3397    0.0000 N   0  0  0  0  0  0  0  0  0  0  0  0
    4.5006   -0.7522    0.0000 C   0  0  0  0  0  0  0  0  0  0  0  0
    4.5006   -1.5772    0.0000 C   0  0  0  0  0  0  0  0  0  0  0  0
    5.2150   -1.9897    0.0000 N   0  0  0  0  0  0  0  0  0  0  0  0
    5.9295   -1.5772    0.0000 C   0  0  0  0  0  0  0  0  0  0  0  0
    3.7861   -1.9897    0.0000 N   0  0  0  0  0  0  0  0  0  0  0  0
    3.0716   -1.5772    0.0000 C   0  0  0  0  0  0  0  0  0  0  0  0
    3.0716   -0.7522    0.0000 N   0  0  0  0  0  0  0  0  0  0  0  0
    3.7861   -0.3397    0.0000 C   0  0  0  0  0  0  0  0  0  0  0  0
    3.7861    0.4853    0.0000 O   0  0  0  0  0  0  0  0  0  0  0  0
    2.3571   -1.9897    0.0000 N   0  0  0  0  0  0  0  0  0  0  0  0
    5.2150    0.4853    0.0000 C   0  0  0  0  0  0  0  0  0  0  0  0
    4.5006    0.8978    0.0000 O   0  0  0  0  0  0  0  0  0  0  0  0
    8.0729    0.4853    0.0000 C   0  0  0  0  0  0  0  0  0  0  0  0
    8.7874    0.8978    0.0000 C   0  0  0  0  0  0  0  0  0  0  0  0
   12.3597    0.4853    0.0000 C   0  0  0  0  0  0  0  0  0  0  0  0
   13.0742    0.8978    0.0000 C   0  0  0  0  0  0  0  0  0  0  0  0
   13.7887    0.4853    0.0000 C   0  0  0  0  0  0  0  0  0  0  0  0
   14.5031    0.8978    0.0000 O   0  0  0  0  0  0  0  0  0  0  0  0
   13.7887   -0.3397    0.0000 O   0  0  0  0  0  0  0  0  0  0  0  0
   11.6453    1.7228    0.0000 C   0  0  0  0  0  0  0  0  0  0  0  0
   12.3597    2.1353    0.0000 O   0  0  0  0  0  0  0  0  0  0  0  0
   10.9308    2.1353    0.0000 O   0  0  0  0  0  0  0  0  0  0  0  0
   16.8603    0.0000    0.0000 O   0  0  0  0  0  0  0  0  0  0  0  0
    0.0000   -3.6397    0.0000 O   0  0  0  0  0  0  0  0  0  0  0  0
    2.3571   -3.6397    0.0000 O   0  0  0  0  0  0  0  0  0  0  0  0
    4.7143   -3.6397    0.0000 O   0  0  0  0  0  0  0  0  0  0  0  0
    0.0000   -5.2897    0.0000 O   0  0  0  0  0  0  0  0  0  0  0  0
  2  3  1  6  0  0  0
  3  4  1  0  0  0  0
  4  5  2  0  0  0  0
  4  6  1  0  0  0  0
  6  7  2  0  0  0  0
  7  8  1  0  0  0  0
  8  9  2  0  0  0  0
  9 10  1  0  0  0  0
 10 11  1  0  0  0  0
 11 12  1  0  0  0  0
 12 13  1  0  0  0  0
 13 14  1  0  0  0  0
 14 15  2  0  0  0  0
 15 16  1  0  0  0  0
 16 17  1  0  0  0  0
 12 17  1  0  0  0  0
 15 18  1  0  0  0  0
 18 19  1  0  0  0  0
 19 20  2  0  0  0  0
 20 21  1  0  0  0  0
 14 21  1  0  0  0  0
 21 22  2  0  0  0  0
 19 23  1  0  0  0  0
 13 24  1  0  0  0  0
 24 25  2  0  0  0  0
  9 26  1  0  0  0  0
 26 27  2  0  0  0  0
  6 27  1  0  0  0  0
  2 28  1  0  0  0  0
 28 29  1  0  0  0  0
 29 30  1  0  0  0  0
 30 31  1  0  0  0  0
 30 32  2  0  0  0  0
  2 33  1  0  0  0  0
 33 34  1  0  0  0  0
 33 35  2  0  0  0  0
M  END
>  <Name>
Folinic Acid Calcium Salt Pentahydrate 

>  <CAS>
6035-45-6

>  <Formula>
C21H25CaN7O7.5H2O

>  <MolWt>
511.50 

>  <Bioactivity>
Leucovorin is a derivative of folic acid, which can be used to increase levels of folic acid under conditions favoring folic acid inhibition.

>  <Pathways>
Metabolism

>  <Target>
Folate Analogue

>  <Receptor>
Folate Analogue

>  <Reference>
1. Van der Wilt CL, et al. Cancer Res, 1992, 52(18), 4922-4928.

$$$$
88495-63-0
  Mrv1561503291623562D          

 27 30  0  0  1  0            999 V2000
    3.4397    1.5425    0.0000 C   0  0  1  0  0  0  0  0  0  0  0  0
    3.6783    0.5917    0.0000 O   0  0  0  0  0  0  0  0  0  0  0  0
    4.4045    0.1313    0.0000 O   0  0  0  0  0  0  0  0  0  0  0  0
    4.8609    0.8400    0.0000 C   0  0  0  0  0  0  0  0  0  0  0  0
    4.0289    1.0529    0.0000 O   0  0  0  0  0  0  0  0  0  0  0  0
    3.0962    0.8322    0.0000 C   0  0  1  0  0  0  0  0  0  0  0  0
    2.2814    0.5616    0.0000 O   0  0  0  0  0  0  0  0  0  0  0  0
    1.5762    1.0192    0.0000 C   0  0  2  0  0  0  0  0  0  0  0  0
    0.7938    0.7578    0.0000 O   0  0  0  0  0  0  0  0  0  0  0  0
    0.6290   -0.0506    0.0000 C   0  0  0  0  0  0  0  0  0  0  0  0
    1.2466   -0.5975    0.0000 O   0  0  0  0  0  0  0  0  0  0  0  0
   -0.1535   -0.3121    0.0000 C   0  0  0  0  0  0  0  0  0  0  0  0
   -0.3183   -1.1205    0.0000 C   0  0  0  0  0  0  0  0  0  0  0  0
   -1.1008   -1.3819    0.0000 C   0  0  0  0  0  0  0  0  0  0  0  0
   -1.2656   -2.1903    0.0000 O   0  0  0  0  0  0  0  0  0  0  0  0
   -1.7185   -0.8350    0.0000 O   0  0  0  0  0  0  0  0  0  0  0  0
    1.8648    1.8093    0.0000 C   0  0  1  0  0  0  0  0  0  0  0  0
    2.6974    2.0420    0.0000 C   0  0  2  0  0  0  0  0  0  0  0  0
    2.6013    2.8969    0.0000 C   0  0  0  0  0  0  0  0  0  0  0  0
    3.1648    3.5164    0.0000 C   0  0  0  0  0  0  0  0  0  0  0  0
    3.8840    3.0853    0.0000 C   0  0  2  0  0  0  0  0  0  0  0  0
    4.0004    2.2380    0.0000 C   0  0  2  0  0  0  0  0  0  0  0  0
    4.8579    2.2268    0.0000 C   0  0  0  0  0  0  0  0  0  0  0  0
    5.3467    1.5377    0.0000 C   0  0  0  0  0  0  0  0  0  0  0  0
    4.5724    3.5399    0.0000 C   0  0  0  0  0  0  0  0  0  0  0  0
    1.3045    2.4149    0.0000 C   0  0  0  0  0  0  0  0  0  0  0  0
    5.5464    0.3809    0.0000 C   0  0  0  0  0  0  0  0  0  0  0  0
  1  2  1  1  0  0  0
  2  3  1  0  0  0  0
  3  4  1  0  0  0  0
  4  5  1  0  0  0  0
  6  5  1  1  0  0  0
  1  6  1  0  0  0  0
  6  7  1  0  0  0  0
  7  8  1  0  0  0  0
  8  9  1  6  0  0  0
  9 10  1  0  0  0  0
 10 11  2  0  0  0  0
 10 12  1  0  0  0  0
 12 13  1  0  0  0  0
 13 14  1  0  0  0  0
 14 15  1  0  0  0  0
 14 16  2  0  0  0  0
  8 17  1  0  0  0  0
 17 18  1  0  0  0  0
  1 18  1  0  0  0  0
 18 19  1  6  0  0  0
 19 20  1  0  0  0  0
 20 21  1  0  0  0  0
 21 22  1  0  0  0  0
  1 22  1  0  0  0  0
 22 23  1  6  0  0  0
 23 24  1  0  0  0  0
  4 24  1  0  0  0  0
 21 25  1  1  0  0  0
 17 26  1  6  0  0  0
  4 27  1  0  0  0  0
M  END
>  <Name>
Artesunate

>  <CAS>
88495-63-0

>  <Formula>
C19H28O8

>  <MolWt>
384.42 

>  <Bioactivity>
Artesunate is a part of the artemisinin group of agents with an IC50 of < 5 ?M for small cell lung carcinoma cell line H69. Artesunate is a semi-synthetic derivative of artemisinin that is water-soluble and may therefore be given by injection. Artesunate is used primarily as treatment for malaria; but artesunate has also been shown to be >90% efficacious at reducing egg production in Schistosoma haematobium infection.

>  <Pathways>
Others

>  <Target>
Others

>  <Receptor>
Others

>  <Reference>
1. Cui C, et al. Int Immunopharmacol. 2015 Jul;27(1):110-21. 

$$$$
T0521
  Mrv1561503291623562D          

 14 13  0  0  0  0            999 V2000
   -0.0000    0.0000    0.0000 C   0  0  0  0  0  0  0  0  0  0  0  0
   -0.0000    0.8250    0.0000 C   0  0  0  0  0  0  0  0  0  0  0  0
    0.7145    1.2375    0.0000 C   0  0  0  0  0  0  0  0  0  0  0  0
    1.4289    0.8250    0.0000 C   0  0  0  0  0  0  0  0  0  0  0  0
    1.4289   -0.0000    0.0000 C   0  0  0  0  0  0  0  0  0  0  0  0
    0.7145   -0.4125    0.0000 C   0  0  0  0  0  0  0  0  0  0  0  0
    0.7145    2.0625    0.0000 C   0  0  0  0  0  0  0  0  0  0  0  0
    1.4289    2.4750    0.0000 O   0  0  0  0  0  0  0  0  0  0  0  0
    0.0000    2.4750    0.0000 O   0  5  0  0  0  0  0  0  0  0  0  0
   -0.7145    1.2375    0.0000 S   0  0  0  0  0  0  0  0  0  0  0  0
   -1.4289    0.8250    0.0000 Hg  0  0  0  0  0  0  0  0  0  0  0  0
   -2.1434    0.4125    0.0000 C   0  0  0  0  0  0  0  0  0  0  0  0
   -2.8579    0.8250    0.0000 C   0  0  0  0  0  0  0  0  0  0  0  0
   -0.7145    2.8875    0.0000 Na  0  3  0  0  0  0  0  0  0  0  0  0
  1  2  2  0  0  0  0
  2  3  1  0  0  0  0
  3  4  2  0  0  0  0
  4  5  1  0  0  0  0
  5  6  2  0  0  0  0
  1  6  1  0  0  0  0
  3  7  1  0  0  0  0
  7  8  2  0  0  0  0
  7  9  1  0  0  0  0
  2 10  1  0  0  0  0
 10 11  1  0  0  0  0
 11 12  1  0  0  0  0
 12 13  1  0  0  0  0
M  CHG  2   9  -1  14   1
M  END
>  <Name>
Thimerosal

>  <CAS>
54-64-8

>  <Formula>
C9H9HgNaO2S

>  <MolWt>
404.81 

>  <Bioactivity>
Thimerosal is an organomercurial compound and derivative of thiosalicyclic acid with antibacterial and antifungal properties. Although the mechanism of action has not been fully elucidated, thimerosal inhibits sulfhydryl-containing active site of various enzymes and binds to sulfhydryl compounds, such as glutathione, cysteine, and SH groups of proteins. In addition, thimerosal activates the InsP3 calcium channel on endoplasmic reticular membrane, thereby triggering the release of calcium from intracellular stores resulting in a calcium-induced calcium-influx of extracellular calcium. Consequently, thimerosal may induce or inhibit cellular functions dependent on calcium signaling.

>  <Pathways>
Microbiology & Virology

>  <Target>
Antibacterial

>  <Receptor>
Antibacterial

>  <Reference>
1. Li X, et al. Toxicol Sci. 2014 Jun;139(2):452-65. 

$$$$
13710-19-5
  Mrv1561503291623562D          

 18 19  0  0  0  0            999 V2000
    2.8579   -2.4750    0.0000 C   0  0  0  0  0  0  0  0  0  0  0  0
    2.1434   -2.8875    0.0000 C   0  0  0  0  0  0  0  0  0  0  0  0
    1.4289   -2.4750    0.0000 C   0  0  0  0  0  0  0  0  0  0  0  0
    1.4289   -1.6500    0.0000 C   0  0  0  0  0  0  0  0  0  0  0  0
    2.1434   -1.2375    0.0000 C   0  0  0  0  0  0  0  0  0  0  0  0
    2.8579   -1.6500    0.0000 C   0  0  0  0  0  0  0  0  0  0  0  0
    2.1434   -0.4125    0.0000 Cl  0  0  0  0  0  0  0  0  0  0  0  0
    0.7145   -1.2375    0.0000 C   0  0  0  0  0  0  0  0  0  0  0  0
    2.1434   -3.7125    0.0000 N   0  0  0  0  0  0  0  0  0  0  0  0
    1.4289   -4.1250    0.0000 C   0  0  0  0  0  0  0  0  0  0  0  0
    1.4289   -4.9500    0.0000 C   0  0  0  0  0  0  0  0  0  0  0  0
    0.7145   -5.3625    0.0000 C   0  0  0  0  0  0  0  0  0  0  0  0
   -0.0000   -4.9500    0.0000 C   0  0  0  0  0  0  0  0  0  0  0  0
   -0.0000   -4.1250    0.0000 C   0  0  0  0  0  0  0  0  0  0  0  0
    0.7145   -3.7125    0.0000 C   0  0  0  0  0  0  0  0  0  0  0  0
    2.1434   -5.3625    0.0000 C   0  0  0  0  0  0  0  0  0  0  0  0
    2.1434   -6.1875    0.0000 O   0  0  0  0  0  0  0  0  0  0  0  0
    2.8579   -4.9500    0.0000 O   0  0  0  0  0  0  0  0  0  0  0  0
  1  2  2  0  0  0  0
  2  3  1  0  0  0  0
  3  4  2  0  0  0  0
  4  5  1  0  0  0  0
  5  6  2  0  0  0  0
  1  6  1  0  0  0  0
  5  7  1  0  0  0  0
  4  8  1  0  0  0  0
  2  9  1  0  0  0  0
  9 10  1  0  0  0  0
 10 11  2  0  0  0  0
 11 12  1  0  0  0  0
 12 13  2  0  0  0  0
 13 14  1  0  0  0  0
 14 15  2  0  0  0  0
 10 15  1  0  0  0  0
 11 16  1  0  0  0  0
 16 17  1  0  0  0  0
 16 18  2  0  0  0  0
M  END
>  <Name>
TOLFENAMIC ACID

>  <CAS>
13710-19-5

>  <Formula>
C14H12ClNO2

>  <MolWt>
261.70 

>  <Bioactivity>
Tolfenamic acid (TA) is one of the class of non-steroidal anti-inflammatory drugs (NSAIDs).Tolfenamic acid is a NSAID. Tolfenamic acid treatment inhibited cell growth and induced apoptosis as measured by caspase activity and bioelectric impedance.

>  <Pathways>
Neuroscience

>  <Target>
COX inhibitor; Calcium Channel inhibitor

>  <Receptor>
Prostaglandin G/H synthase;Calcium Channel

>  <Reference>
1. Adwan L, et al. J Neurochem. 2015 Apr;133(2):266-72.

$$$$
68291-97-4
  Mrv1561503291623562D          

 14 15  0  0  0  0            999 V2000
    3.2789    1.2375    0.0000 C   0  0  0  0  0  0  0  0  0  0  0  0
    3.9934    0.8250    0.0000 C   0  0  0  0  0  0  0  0  0  0  0  0
    3.9934    0.0000    0.0000 C   0  0  0  0  0  0  0  0  0  0  0  0
    3.2789   -0.4125    0.0000 C   0  0  0  0  0  0  0  0  0  0  0  0
    2.5645   -0.0000    0.0000 C   0  0  0  0  0  0  0  0  0  0  0  0
    2.5645    0.8250    0.0000 C   0  0  0  0  0  0  0  0  0  0  0  0
    1.7798    1.0799    0.0000 C   0  0  0  0  0  0  0  0  0  0  0  0
    1.2949    0.4125    0.0000 N   0  0  0  0  0  0  0  0  0  0  0  0
    1.7798   -0.2549    0.0000 O   0  0  0  0  0  0  0  0  0  0  0  0
    1.5249    1.8646    0.0000 C   0  0  0  0  0  0  0  0  0  0  0  0
    0.7179    2.0361    0.0000 S   0  0  0  0  0  0  0  0  0  0  0  0
   -0.0890    2.2076    0.0000 N   0  0  0  0  0  0  0  0  0  0  0  0
    0.8895    2.8431    0.0000 O   0  0  0  0  0  0  0  0  0  0  0  0
    0.5464    1.2291    0.0000 O   0  0  0  0  0  0  0  0  0  0  0  0
  1  2  2  0  0  0  0
  2  3  1  0  0  0  0
  3  4  2  0  0  0  0
  4  5  1  0  0  0  0
  5  6  2  0  0  0  0
  1  6  1  0  0  0  0
  6  7  1  0  0  0  0
  7  8  2  0  0  0  0
  8  9  1  0  0  0  0
  5  9  1  0  0  0  0
  7 10  1  0  0  0  0
 10 11  1  0  0  0  0
 11 12  1  0  0  0  0
 11 13  2  0  0  0  0
 11 14  2  0  0  0  0
M  END
>  <Name>
Zonisamide

>  <CAS>
68291-97-4

>  <Formula>
C8H8N2O3S

>  <MolWt>
212.23 

>  <Bioactivity>
Zonisamide is a sulfonamide anticonvulsant approved for use as an adjunctive therapy in adults with partial-onset seizures. Zonisamide may be a carbonic anhydrase inhibitor although this is not one of the primary mechanisms of action. Zonisamide may act by blocking repetitive firing of voltage-gated sodium channels leading to a reduction of T-type calcium channel currents, or by binding allosterically to GABA receptors. This latter action may inhibit the uptake of the inhibitory neurotransmitter GABA while enhancing the uptake of the excitatory neurotransmitter glutamate.  

>  <Pathways>
Membrane Transporter/Ion Channel; Metabolism

>  <Target>
Carbonic anhydrase inhibitor;Calcium Channel inhibitor;Sodium Channel inhibitor

>  <Receptor>
CA;Calcium Channel;Sodium channel

>  <Reference>
1. Tsujii S, et al. Eur J Pharmacol. 2015 Jan 5;746:301-7.

$$$$
5133-19-7
  Mrv1561503291623562D          

 30 33  0  0  1  0            999 V2000
    2.1434   -0.4125    0.0000 C   0  0  1  0  0  0  0  0  0  0  0  0
    2.8579    0.0000    0.0000 C   0  0  0  0  0  0  0  0  0  0  0  0
    2.8579    0.8250    0.0000 C   0  0  0  0  0  0  0  0  0  0  0  0
    2.1434    1.2375    0.0000 C   0  0  0  0  0  0  0  0  0  0  0  0
    2.1434    2.0625    0.0000 O   0  0  0  0  0  0  0  0  0  0  0  0
    1.4289    0.8250    0.0000 C   0  0  0  0  0  0  0  0  0  0  0  0
    1.4289    0.0000    0.0000 C   0  0  0  0  0  0  0  0  0  0  0  0
    0.7145   -0.4125    0.0000 C   0  0  0  0  0  0  0  0  0  0  0  0
   -0.0000    0.0000    0.0000 C   0  0  0  0  0  0  0  0  0  0  0  0
   -0.0000    0.8250    0.0000 C   0  0  0  0  0  0  0  0  0  0  0  0
    0.7145    1.2375    0.0000 C   0  0  0  0  0  0  0  0  0  0  0  0
    0.7145    2.0625    0.0000 O   0  0  0  0  0  0  0  0  0  0  0  0
    3.5724    1.2375    0.0000 C   0  0  0  0  0  0  0  0  0  0  0  0
    4.2868    0.8250    0.0000 C   0  0  0  0  0  0  0  0  0  0  0  0
    4.2868   -0.0000    0.0000 C   0  0  0  0  0  0  0  0  0  0  0  0
    3.5724   -0.4125    0.0000 C   0  0  0  0  0  0  0  0  0  0  0  0
    5.0013   -0.4125    0.0000 C   0  0  0  0  0  0  0  0  0  0  0  0
    5.7158   -0.0000    0.0000 O   0  0  0  0  0  0  0  0  0  0  0  0
    3.5724    2.0625    0.0000 O   0  0  0  0  0  0  0  0  0  0  0  0
    2.1434   -1.2375    0.0000 C   0  0  2  0  0  0  0  0  0  0  0  0
    2.8579   -1.6500    0.0000 O   0  0  0  0  0  0  0  0  0  0  0  0
    2.8579   -2.4750    0.0000 C   0  0  1  0  0  0  0  0  0  0  0  0
    2.1434   -2.8875    0.0000 C   0  0  1  0  0  0  0  0  0  0  0  0
    2.1434   -3.7125    0.0000 O   0  0  0  0  0  0  0  0  0  0  0  0
    1.4289   -2.4750    0.0000 C   0  0  1  0  0  0  0  0  0  0  0  0
    1.4289   -1.6500    0.0000 C   0  0  1  0  0  0  0  0  0  0  0  0
    0.7145   -1.2375    0.0000 O   0  0  0  0  0  0  0  0  0  0  0  0
    0.7145   -2.8875    0.0000 O   0  0  0  0  0  0  0  0  0  0  0  0
    3.5724   -2.8875    0.0000 C   0  0  0  0  0  0  0  0  0  0  0  0
    3.5724   -3.7125    0.0000 O   0  0  0  0  0  0  0  0  0  0  0  0
  1  2  1  0  0  0  0
  2  3  2  0  0  0  0
  3  4  1  0  0  0  0
  4  5  2  0  0  0  0
  4  6  1  0  0  0  0
  6  7  2  0  0  0  0
  1  7  1  0  0  0  0
  7  8  1  0  0  0  0
  8  9  2  0  0  0  0
  9 10  1  0  0  0  0
 10 11  2  0  0  0  0
  6 11  1  0  0  0  0
 11 12  1  0  0  0  0
  3 13  1  0  0  0  0
 13 14  2  0  0  0  0
 14 15  1  0  0  0  0
 15 16  2  0  0  0  0
  2 16  1  0  0  0  0
 15 17  1  0  0  0  0
 17 18  1  0  0  0  0
 13 19  1  0  0  0  0
  1 20  1  6  0  0  0
 20 21  1  6  0  0  0
 21 22  1  0  0  0  0
 22 23  1  0  0  0  0
 23 24  1  1  0  0  0
 23 25  1  0  0  0  0
 25 26  1  0  0  0  0
 20 26  1  0  0  0  0
 26 27  1  1  0  0  0
 25 28  1  6  0  0  0
 22 29  1  6  0  0  0
 29 30  1  0  0  0  0
M  END
>  <Name>
Aloin

>  <CAS>
5133-19-7

>  <Formula>
C21H22O9

>  <MolWt>
418.39 

>  <Bioactivity>
It is used as a stimulant-laxative, treating constipation by inducing bowel movements.[2] The compound is present in what is commonly referred to as the aloe latex that exudes from cells adjacent to the vascular bundles, found under the rind of the leaf and in between it and the gel. When dried, it has been used as a bittering agent in commerce

>  <Pathways>
Others

>  <Target>
Others

>  <Receptor>
Others

>  <Reference>
1. Esmat AY, et al. Pharm Biol. 2015 Jan;53(1):138-46. 

$$$$
18507-89-6
  Mrv1561503291623562D          

 30 31  0  0  0  0            999 V2000
   -2.8579   -2.4750    0.0000 C   0  0  0  0  0  0  0  0  0  0  0  0
   -3.5724   -2.8875    0.0000 C   0  0  0  0  0  0  0  0  0  0  0  0
   -3.5724   -3.7125    0.0000 C   0  0  0  0  0  0  0  0  0  0  0  0
   -2.8579   -4.1250    0.0000 C   0  0  0  0  0  0  0  0  0  0  0  0
   -2.1434   -3.7125    0.0000 C   0  0  0  0  0  0  0  0  0  0  0  0
   -2.1434   -2.8875    0.0000 C   0  0  0  0  0  0  0  0  0  0  0  0
   -1.4289   -2.4750    0.0000 O   0  0  0  0  0  0  0  0  0  0  0  0
   -0.7145   -2.8875    0.0000 C   0  0  0  0  0  0  0  0  0  0  0  0
    0.0000   -2.4750    0.0000 C   0  0  0  0  0  0  0  0  0  0  0  0
    0.7145   -2.8875    0.0000 C   0  0  0  0  0  0  0  0  0  0  0  0
    1.4289   -2.4750    0.0000 C   0  0  0  0  0  0  0  0  0  0  0  0
    2.1434   -2.8875    0.0000 C   0  0  0  0  0  0  0  0  0  0  0  0
    2.8579   -2.4750    0.0000 C   0  0  0  0  0  0  0  0  0  0  0  0
    3.5724   -2.8875    0.0000 C   0  0  0  0  0  0  0  0  0  0  0  0
    4.2868   -2.4750    0.0000 C   0  0  0  0  0  0  0  0  0  0  0  0
    5.0013   -2.8875    0.0000 C   0  0  0  0  0  0  0  0  0  0  0  0
    5.7158   -2.4750    0.0000 C   0  0  0  0  0  0  0  0  0  0  0  0
   -1.4289   -4.1250    0.0000 O   0  0  0  0  0  0  0  0  0  0  0  0
   -0.7145   -3.7125    0.0000 C   0  0  0  0  0  0  0  0  0  0  0  0
    0.0000   -4.1250    0.0000 C   0  0  0  0  0  0  0  0  0  0  0  0
   -4.2868   -4.1250    0.0000 N   0  0  0  0  0  0  0  0  0  0  0  0
   -5.0013   -3.7125    0.0000 C   0  0  0  0  0  0  0  0  0  0  0  0
   -5.0013   -2.8875    0.0000 C   0  0  0  0  0  0  0  0  0  0  0  0
   -4.2868   -2.4750    0.0000 C   0  0  0  0  0  0  0  0  0  0  0  0
   -4.2868   -1.6500    0.0000 O   0  0  0  0  0  0  0  0  0  0  0  0
   -5.7158   -2.4750    0.0000 C   0  0  0  0  0  0  0  0  0  0  0  0
   -6.4302   -2.8875    0.0000 O   0  0  0  0  0  0  0  0  0  0  0  0
   -7.1447   -2.4750    0.0000 C   0  0  0  0  0  0  0  0  0  0  0  0
   -7.8592   -2.8875    0.0000 C   0  0  0  0  0  0  0  0  0  0  0  0
   -5.7158   -1.6500    0.0000 O   0  0  0  0  0  0  0  0  0  0  0  0
  1  2  2  0  0  0  0
  2  3  1  0  0  0  0
  3  4  2  0  0  0  0
  4  5  1  0  0  0  0
  5  6  2  0  0  0  0
  1  6  1  0  0  0  0
  6  7  1  0  0  0  0
  7  8  1  0  0  0  0
  8  9  1  0  0  0  0
  9 10  1  0  0  0  0
 10 11  1  0  0  0  0
 11 12  1  0  0  0  0
 12 13  1  0  0  0  0
 13 14  1  0  0  0  0
 14 15  1  0  0  0  0
 15 16  1  0  0  0  0
 16 17  1  0  0  0  0
  5 18  1  0  0  0  0
 18 19  1  0  0  0  0
 19 20  1  0  0  0  0
  3 21  1  0  0  0  0
 21 22  1  0  0  0  0
 22 23  2  0  0  0  0
 23 24  1  0  0  0  0
  2 24  1  0  0  0  0
 24 25  2  0  0  0  0
 23 26  1  0  0  0  0
 26 27  1  0  0  0  0
 27 28  1  0  0  0  0
 28 29  1  0  0  0  0
 26 30  2  0  0  0  0
M  END
>  <Name>
Decoquinate

>  <CAS>
18507-89-6

>  <Formula>
C24H35NO5

>  <MolWt>
417.54 

>  <Bioactivity>
A coccidiostat for poultry.

>  <Pathways>
Others

>  <Target>
Others

>  <Receptor>
Others

>  <Reference>
1. The EFSA Journal, 2003, 17, 1-40.

$$$$
99300-78-4
  Mrv1561503291623562D          

 22 21  0  0  0  0            999 V2000
    0.4125    0.0000    0.0000 H   0  3  0  0  0  0  0  0  0  0  0  0
    4.9131    0.7724    0.0000 C   0  0  0  0  0  0  0  0  0  0  0  0
    4.1986    0.3599    0.0000 C   0  0  0  0  0  0  0  0  0  0  0  0
    4.1986   -0.4651    0.0000 C   0  0  0  0  0  0  0  0  0  0  0  0
    4.9131   -0.8776    0.0000 C   0  0  0  0  0  0  0  0  0  0  0  0
    4.3828   -1.5096    0.0000 O   0  0  0  0  0  0  0  0  0  0  0  0
    5.1952   -0.1024    0.0000 C   0  0  0  0  0  0  0  0  0  0  0  0
    6.0077    0.0409    0.0000 C   0  0  0  0  0  0  0  0  0  0  0  0
    6.5380   -0.5911    0.0000 C   0  0  0  0  0  0  0  0  0  0  0  0
    6.2558   -1.3664    0.0000 C   0  0  0  0  0  0  0  0  0  0  0  0
    5.4434   -1.5096    0.0000 C   0  0  0  0  0  0  0  0  0  0  0  0
    3.4841   -0.8776    0.0000 C   0  0  0  0  0  0  0  0  0  0  0  0
    3.4841   -1.7026    0.0000 N   0  0  0  0  0  0  0  0  0  0  0  0
    4.1986   -2.1151    0.0000 C   0  0  0  0  0  0  0  0  0  0  0  0
    2.7696   -2.1151    0.0000 C   0  0  0  0  0  0  0  0  0  0  0  0
    3.4841    0.7724    0.0000 C   0  0  0  0  0  0  0  0  0  0  0  0
    3.4841    1.5974    0.0000 C   0  0  0  0  0  0  0  0  0  0  0  0
    4.1986    2.0099    0.0000 C   0  0  0  0  0  0  0  0  0  0  0  0
    4.9131    1.5974    0.0000 C   0  0  0  0  0  0  0  0  0  0  0  0
    4.1986    2.8349    0.0000 O   0  0  0  0  0  0  0  0  0  0  0  0
    3.4841    3.2474    0.0000 C   0  0  0  0  0  0  0  0  0  0  0  0
   -0.4125    0.0000    0.0000 Cl  0  5  0  0  0  0  0  0  0  0  0  0
  2  3  2  0  0  0  0
  3  4  1  0  0  0  0
  4  5  1  0  0  0  0
  5  6  1  0  0  0  0
  5  7  1  0  0  0  0
  7  8  1  0  0  0  0
  8  9  1  0  0  0  0
  9 10  1  0  0  0  0
 10 11  1  0  0  0  0
  5 11  1  0  0  0  0
  4 12  1  0  0  0  0
 12 13  1  0  0  0  0
 13 14  1  0  0  0  0
 13 15  1  0  0  0  0
  3 16  1  0  0  0  0
 16 17  2  0  0  0  0
 17 18  1  0  0  0  0
 18 19  2  0  0  0  0
  2 19  1  0  0  0  0
 18 20  1  0  0  0  0
 20 21  1  0  0  0  0
M  CHG  2   1   1  22  -1
M  END
>  <Name>
Venlafaxine HCl

>  <CAS>
99300-78-4

>  <Formula>
C17H28CLNO2

>  <MolWt>
313.86 

>  <Bioactivity>
Venlafaxine is an arylalkanolamine serotonin-norepinephrine reuptake inhibitor (SNRI), used to treat major depressive disorder (MDD), generalised anxiety disorder (GAD), panic disorder and social phobia.

>  <Pathways>
Neuroscience

>  <Target>
5-HT Receptor antagonist

>  <Receptor>
5-HT Receptor

>  <Reference>
1. Ball SE, et al. Br J Clin Pharmacol, 1997, 43(6), 619-626.

$$$$
T1306
  Mrv1561503291623562D          

 23 25  0  0  0  0            999 V2000
    0.0000   -1.6500    0.0000 C   0  0  0  0  0  0  0  0  0  0  0  0
    0.7145   -1.2375    0.0000 C   0  0  0  0  0  0  0  0  0  0  0  0
    0.7145   -0.4125    0.0000 C   0  0  0  0  0  0  0  0  0  0  0  0
   -0.0000    0.0000    0.0000 C   0  0  0  0  0  0  0  0  0  0  0  0
   -0.7145   -0.4125    0.0000 C   0  0  0  0  0  0  0  0  0  0  0  0
   -0.7145   -1.2375    0.0000 C   0  0  0  0  0  0  0  0  0  0  0  0
   -1.4289   -1.6500    0.0000 N   0  0  0  0  0  0  0  0  0  0  0  0
   -1.4289   -2.4750    0.0000 C   0  0  0  0  0  0  0  0  0  0  0  0
   -2.1434   -2.8875    0.0000 C   0  0  0  0  0  0  0  0  0  0  0  0
   -2.8579   -2.4750    0.0000 N   0  0  0  0  0  0  0  0  0  0  0  0
   -2.8579   -1.6500    0.0000 C   0  0  0  0  0  0  0  0  0  0  0  0
   -2.1434   -1.2375    0.0000 C   0  0  0  0  0  0  0  0  0  0  0  0
   -1.4289   -0.0000    0.0000 F   0  0  0  0  0  0  0  0  0  0  0  0
    1.4289    0.0000    0.0000 C   0  0  0  0  0  0  0  0  0  0  0  0
    2.1434   -0.4125    0.0000 C   0  0  0  0  0  0  0  0  0  0  0  0
    2.1434   -1.2375    0.0000 C   0  0  0  0  0  0  0  0  0  0  0  0
    1.4289   -1.6500    0.0000 N   0  0  0  0  0  0  0  0  0  0  0  0
    1.4289   -2.4750    0.0000 C   0  0  0  0  0  0  0  0  0  0  0  0
    0.7145   -2.8875    0.0000 C   0  0  0  0  0  0  0  0  0  0  0  0
    2.8579    0.0000    0.0000 C   0  0  0  0  0  0  0  0  0  0  0  0
    2.8579    0.8250    0.0000 O   0  0  0  0  0  0  0  0  0  0  0  0
    3.5724   -0.4125    0.0000 O   0  0  0  0  0  0  0  0  0  0  0  0
    1.4289    0.8250    0.0000 O   0  0  0  0  0  0  0  0  0  0  0  0
  1  2  2  0  0  0  0
  2  3  1  0  0  0  0
  3  4  2  0  0  0  0
  4  5  1  0  0  0  0
  5  6  2  0  0  0  0
  1  6  1  0  0  0  0
  6  7  1  0  0  0  0
  7  8  1  0  0  0  0
  8  9  1  0  0  0  0
  9 10  1  0  0  0  0
 10 11  1  0  0  0  0
 11 12  1  0  0  0  0
  7 12  1  0  0  0  0
  5 13  1  0  0  0  0
  3 14  1  0  0  0  0
 14 15  1  0  0  0  0
 15 16  2  0  0  0  0
 16 17  1  0  0  0  0
  2 17  1  0  0  0  0
 17 18  1  0  0  0  0
 18 19  1  0  0  0  0
 15 20  1  0  0  0  0
 20 21  1  0  0  0  0
 20 22  2  0  0  0  0
 14 23  2  0  0  0  0
M  END
>  <Name>
Norfloxacin

>  <CAS>
70458-96-7

>  <Formula>
C16H18FN3O3

>  <MolWt>
319.34 

>  <Bioactivity>
Norfloxacin(Norxacin) is a broad-spectrum antibiotic that is active against both Gram-positive and Gram-negative bacteria. It functions by inhibiting DNA gyrase, a type II topoisomerase, and topoisomerase IV, enzymes necessary to separate bacterial DNA, thereby inhibiting cell division. This mechanism can also affect mammalian cell replication

>  <Pathways>
DNA Damage/DNA Repair

>  <Target>
Topoisomerase inhibitor; DNA gyrase inhibitor

>  <Receptor>
Topoisomerase II ;DNA gyrase

>  <Reference>
1. Preissner S, et al. Nucleic Acids Res. 2010 Jan;38(Database issue):D237-43.

$$$$
88150-42-9
  Mrv1561503291623562D          

 28 29  0  0  0  0            999 V2000
   -4.2868    3.3000    0.0000 C   0  0  0  0  0  0  0  0  0  0  0  0
   -4.2868    2.4750    0.0000 C   0  0  0  0  0  0  0  0  0  0  0  0
   -3.5724    2.0625    0.0000 C   0  0  0  0  0  0  0  0  0  0  0  0
   -2.8579    2.4750    0.0000 C   0  0  0  0  0  0  0  0  0  0  0  0
   -2.1434    2.0625    0.0000 C   0  0  0  0  0  0  0  0  0  0  0  0
   -2.1434    1.2375    0.0000 N   0  0  0  0  0  0  0  0  0  0  0  0
   -2.8579    0.8250    0.0000 C   0  0  0  0  0  0  0  0  0  0  0  0
   -3.5724    1.2375    0.0000 C   0  0  0  0  0  0  0  0  0  0  0  0
   -4.2868    0.8250    0.0000 C   0  0  0  0  0  0  0  0  0  0  0  0
   -4.2868    0.0000    0.0000 O   0  0  0  0  0  0  0  0  0  0  0  0
   -5.0013   -0.4125    0.0000 C   0  0  0  0  0  0  0  0  0  0  0  0
   -5.0013    1.2375    0.0000 O   0  0  0  0  0  0  0  0  0  0  0  0
   -2.8579    0.0000    0.0000 C   0  0  0  0  0  0  0  0  0  0  0  0
   -1.4289    2.4750    0.0000 C   0  0  0  0  0  0  0  0  0  0  0  0
   -0.7145    2.0625    0.0000 O   0  0  0  0  0  0  0  0  0  0  0  0
    0.0000    2.4750    0.0000 C   0  0  0  0  0  0  0  0  0  0  0  0
    0.7145    2.0625    0.0000 C   0  0  0  0  0  0  0  0  0  0  0  0
    1.4289    2.4750    0.0000 N   0  0  0  0  0  0  0  0  0  0  0  0
   -2.8579    3.3000    0.0000 C   0  0  0  0  0  0  0  0  0  0  0  0
   -2.1434    3.7125    0.0000 O   0  0  0  0  0  0  0  0  0  0  0  0
   -2.1434    4.5375    0.0000 C   0  0  0  0  0  0  0  0  0  0  0  0
   -1.4289    4.9500    0.0000 C   0  0  0  0  0  0  0  0  0  0  0  0
   -3.5724    3.7125    0.0000 O   0  0  0  0  0  0  0  0  0  0  0  0
   -5.0013    2.0625    0.0000 C   0  0  0  0  0  0  0  0  0  0  0  0
   -5.7158    2.4750    0.0000 C   0  0  0  0  0  0  0  0  0  0  0  0
   -5.7158    3.3000    0.0000 C   0  0  0  0  0  0  0  0  0  0  0  0
   -5.0013    3.7125    0.0000 C   0  0  0  0  0  0  0  0  0  0  0  0
   -5.4862    1.3951    0.0000 Cl  0  0  0  0  0  0  0  0  0  0  0  0
  1  2  2  0  0  0  0
  2  3  1  0  0  0  0
  3  4  1  0  0  0  0
  4  5  2  0  0  0  0
  5  6  1  0  0  0  0
  6  7  1  0  0  0  0
  7  8  2  0  0  0  0
  3  8  1  0  0  0  0
  8  9  1  0  0  0  0
  9 10  1  0  0  0  0
 10 11  1  0  0  0  0
  9 12  2  0  0  0  0
  7 13  1  0  0  0  0
  5 14  1  0  0  0  0
 14 15  1  0  0  0  0
 15 16  1  0  0  0  0
 16 17  1  0  0  0  0
 17 18  1  0  0  0  0
  4 19  1  0  0  0  0
 19 20  1  0  0  0  0
 20 21  1  0  0  0  0
 21 22  1  0  0  0  0
 19 23  2  0  0  0  0
  2 24  1  0  0  0  0
 24 25  2  0  0  0  0
 25 26  1  0  0  0  0
 26 27  2  0  0  0  0
  1 27  1  0  0  0  0
 24 28  1  0  0  0  0
M  END
>  <Name>
Amlodipine

>  <CAS>
88150-42-9

>  <Formula>
C26H31ClN2O8S

>  <MolWt>
567.05 

>  <Bioactivity>
Amlodipine is a long-acting calcium channel blocker. Amlodipine is a dihydropyridine calcium antagonist (calcium ion antagonist or slow-channel blocker) that inhibits the movement of calcium ions into vascular smooth muscle cells and cardiac muscle cells.

>  <Pathways>
Membrane Transporter/Ion Channel

>  <Target>
Calcium Channel inhibitor

>  <Receptor>
Calcium Channel

>  <Reference>
1. Zhang X, et al. Circulation, 1998, 97(6), 576-580.

$$$$
59-46-1
  Mrv1561503291623562D          

 17 17  0  0  0  0            999 V2000
   -2.3645   -1.2375    0.0000 C   0  0  0  0  0  0  0  0  0  0  0  0
   -1.9520   -1.9520    0.0000 C   0  0  0  0  0  0  0  0  0  0  0  0
   -1.1270   -1.9520    0.0000 C   0  0  0  0  0  0  0  0  0  0  0  0
   -0.7145   -1.2375    0.0000 O   0  0  0  0  0  0  0  0  0  0  0  0
    0.1105   -1.2375    0.0000 C   0  0  0  0  0  0  0  0  0  0  0  0
    0.5230   -0.5230    0.0000 C   0  0  0  0  0  0  0  0  0  0  0  0
    1.3480   -0.5230    0.0000 N   0  0  0  0  0  0  0  0  0  0  0  0
    1.7605    0.1914    0.0000 C   0  0  0  0  0  0  0  0  0  0  0  0
    2.5855    0.1914    0.0000 C   0  0  0  0  0  0  0  0  0  0  0  0
    1.7605   -1.2375    0.0000 C   0  0  0  0  0  0  0  0  0  0  0  0
    1.3480   -1.9520    0.0000 C   0  0  0  0  0  0  0  0  0  0  0  0
   -0.7145   -2.6664    0.0000 O   0  0  0  0  0  0  0  0  0  0  0  0
   -2.3645   -2.6664    0.0000 C   0  0  0  0  0  0  0  0  0  0  0  0
   -3.1895   -2.6664    0.0000 C   0  0  0  0  0  0  0  0  0  0  0  0
   -3.6020   -1.9520    0.0000 C   0  0  0  0  0  0  0  0  0  0  0  0
   -3.1895   -1.2375    0.0000 C   0  0  0  0  0  0  0  0  0  0  0  0
   -4.4270   -1.9520    0.0000 N   0  0  0  0  0  0  0  0  0  0  0  0
  1  2  2  0  0  0  0
  2  3  1  0  0  0  0
  3  4  1  0  0  0  0
  4  5  1  0  0  0  0
  5  6  1  0  0  0  0
  6  7  1  0  0  0  0
  7  8  1  0  0  0  0
  8  9  1  0  0  0  0
  7 10  1  0  0  0  0
 10 11  1  0  0  0  0
  3 12  2  0  0  0  0
  2 13  1  0  0  0  0
 13 14  2  0  0  0  0
 14 15  1  0  0  0  0
 15 16  2  0  0  0  0
  1 16  1  0  0  0  0
 15 17  1  0  0  0  0
M  END
>  <Name>
Procaine

>  <CAS>
59-46-1

>  <Formula>
C13H20N2O2

>  <MolWt>
236.32 

>  <Bioactivity>
Procaine is a local anesthetic drug of the amino ester group, which acts through multiple targets

>  <Pathways>
Membrane Transporter/Ion Channel

>  <Target>
Sodium Channel inhibitor

>  <Receptor>
Sodium Channel

>  <Reference>
1. Flonta ML, et al. Arch Int Physiol Biochim. 1985 Sep;93(3):223-9.

$$$$
65-29-2
  Mrv1561503291623562D          

 39 36  0  0  0  0            999 V2000
    0.0000    0.0000    0.0000 I   0  5  0  0  0  0  0  0  0  0  0  0
    6.4525   -0.4782    0.0000 C   0  0  0  0  0  0  0  0  0  0  0  0
    6.4525   -1.3032    0.0000 C   0  0  0  0  0  0  0  0  0  0  0  0
    5.7381   -1.7157    0.0000 C   0  0  0  0  0  0  0  0  0  0  0  0
    5.0236   -1.3032    0.0000 C   0  0  0  0  0  0  0  0  0  0  0  0
    5.0236   -0.4782    0.0000 C   0  0  0  0  0  0  0  0  0  0  0  0
    5.7381   -0.0657    0.0000 C   0  0  0  0  0  0  0  0  0  0  0  0
    5.7381    0.7593    0.0000 O   0  0  0  0  0  0  0  0  0  0  0  0
    6.4525    1.1718    0.0000 C   0  0  0  0  0  0  0  0  0  0  0  0
    6.4525    1.9968    0.0000 C   0  0  0  0  0  0  0  0  0  0  0  0
    7.1670    2.4093    0.0000 N   0  3  0  0  0  0  0  0  0  0  0  0
    7.8815    2.8218    0.0000 C   0  0  0  0  0  0  0  0  0  0  0  0
    7.8815    3.6468    0.0000 C   0  0  0  0  0  0  0  0  0  0  0  0
    6.7545    3.1238    0.0000 C   0  0  0  0  0  0  0  0  0  0  0  0
    7.1670    3.8383    0.0000 C   0  0  0  0  0  0  0  0  0  0  0  0
    7.5795    1.6948    0.0000 C   0  0  0  0  0  0  0  0  0  0  0  0
    8.4045    1.6948    0.0000 C   0  0  0  0  0  0  0  0  0  0  0  0
    4.3091   -0.0657    0.0000 O   0  0  0  0  0  0  0  0  0  0  0  0
    4.3091    0.7593    0.0000 C   0  0  0  0  0  0  0  0  0  0  0  0
    3.5946    1.1718    0.0000 C   0  0  0  0  0  0  0  0  0  0  0  0
    3.5946    1.9968    0.0000 N   0  3  0  0  0  0  0  0  0  0  0  0
    3.5946    2.8218    0.0000 C   0  0  0  0  0  0  0  0  0  0  0  0
    4.3091    3.2343    0.0000 C   0  0  0  0  0  0  0  0  0  0  0  0
    4.4196    1.9968    0.0000 C   0  0  0  0  0  0  0  0  0  0  0  0
    4.8321    2.7113    0.0000 C   0  0  0  0  0  0  0  0  0  0  0  0
    2.7696    1.9968    0.0000 C   0  0  0  0  0  0  0  0  0  0  0  0
    2.3571    2.7113    0.0000 C   0  0  0  0  0  0  0  0  0  0  0  0
    4.3091   -1.7157    0.0000 O   0  0  0  0  0  0  0  0  0  0  0  0
    4.3091   -2.5407    0.0000 C   0  0  0  0  0  0  0  0  0  0  0  0
    3.5946   -2.9532    0.0000 C   0  0  0  0  0  0  0  0  0  0  0  0
    3.5946   -3.7782    0.0000 N   0  3  0  0  0  0  0  0  0  0  0  0
    3.5946   -4.6032    0.0000 C   0  0  0  0  0  0  0  0  0  0  0  0
    4.3091   -5.0157    0.0000 C   0  0  0  0  0  0  0  0  0  0  0  0
    2.7696   -3.7782    0.0000 C   0  0  0  0  0  0  0  0  0  0  0  0
    2.3571   -4.4927    0.0000 C   0  0  0  0  0  0  0  0  0  0  0  0
    4.4196   -3.7782    0.0000 C   0  0  0  0  0  0  0  0  0  0  0  0
    4.8321   -4.4927    0.0000 C   0  0  0  0  0  0  0  0  0  0  0  0
    0.0000   -6.6657    0.0000 I   0  5  0  0  0  0  0  0  0  0  0  0
    1.0018   -6.6657    0.0000 I   0  5  0  0  0  0  0  0  0  0  0  0
  2  3  2  0  0  0  0
  3  4  1  0  0  0  0
  4  5  2  0  0  0  0
  5  6  1  0  0  0  0
  6  7  2  0  0  0  0
  2  7  1  0  0  0  0
  7  8  1  0  0  0  0
  8  9  1  0  0  0  0
  9 10  1  0  0  0  0
 10 11  1  0  0  0  0
 11 12  1  0  0  0  0
 12 13  1  0  0  0  0
 11 14  1  0  0  0  0
 14 15  1  0  0  0  0
 11 16  1  0  0  0  0
 16 17  1  0  0  0  0
  6 18  1  0  0  0  0
 18 19  1  0  0  0  0
 19 20  1  0  0  0  0
 20 21  1  0  0  0  0
 21 22  1  0  0  0  0
 22 23  1  0  0  0  0
 21 24  1  0  0  0  0
 24 25  1  0  0  0  0
 21 26  1  0  0  0  0
 26 27  1  0  0  0  0
  5 28  1  0  0  0  0
 28 29  1  0  0  0  0
 29 30  1  0  0  0  0
 30 31  1  0  0  0  0
 31 32  1  0  0  0  0
 32 33  1  0  0  0  0
 31 34  1  0  0  0  0
 34 35  1  0  0  0  0
 31 36  1  0  0  0  0
 36 37  1  0  0  0  0
M  CHG  6   1  -1  11   1  21   1  31   1  38  -1  39  -1
M  END
>  <Name>
Gallamine triethiodide

>  <CAS>
65-29-2

>  <Formula>
C30H60I3N3O3

>  <MolWt>
891.53 

>  <Bioactivity>
A synthetic nondepolarizing blocking drug. The actions of gallamine triethiodide are similar to those of TUBOCURARINE, but this agent blocks the cardiac vagus and may cause sinus tachycardia and, occasionally, hypertension and increased cardiac output. It should be used cautiously in patients at risk from increased heart rate but may be preferred for patients with bradycardia. (From AMA Drug Evaluations Annual, 1992, p198)  

>  <Pathways>
Neuroscience

>  <Target>
AChR antagonist

>  <Receptor>
Muscarinic AChR

>  <Reference>
1. Huang XP, et al. Mol Pharmacol. 2005 Sep;68(3):769-78.

$$$$
73-22-3
  Mrv1561503291623562D          

 15 16  0  0  0  0            999 V2000
    3.2789    1.2375    0.0000 C   0  0  0  0  0  0  0  0  0  0  0  0
    3.9934    0.8250    0.0000 C   0  0  0  0  0  0  0  0  0  0  0  0
    3.9934    0.0000    0.0000 C   0  0  0  0  0  0  0  0  0  0  0  0
    3.2789   -0.4125    0.0000 C   0  0  0  0  0  0  0  0  0  0  0  0
    2.5645   -0.0000    0.0000 C   0  0  0  0  0  0  0  0  0  0  0  0
    2.5645    0.8250    0.0000 C   0  0  0  0  0  0  0  0  0  0  0  0
    1.7798    1.0799    0.0000 C   0  0  0  0  0  0  0  0  0  0  0  0
    1.2949    0.4125    0.0000 C   0  0  0  0  0  0  0  0  0  0  0  0
    1.7798   -0.2549    0.0000 N   0  0  0  0  0  0  0  0  0  0  0  0
    1.5249    1.8646    0.0000 C   0  0  0  0  0  0  0  0  0  0  0  0
    0.7179    2.0361    0.0000 C   0  0  0  0  0  0  0  0  0  0  0  0
    0.4630    2.8207    0.0000 C   0  0  0  0  0  0  0  0  0  0  0  0
   -0.3440    2.9922    0.0000 O   0  0  0  0  0  0  0  0  0  0  0  0
    1.0150    3.4338    0.0000 O   0  0  0  0  0  0  0  0  0  0  0  0
    0.1659    1.4230    0.0000 N   0  0  0  0  0  0  0  0  0  0  0  0
  1  2  2  0  0  0  0
  2  3  1  0  0  0  0
  3  4  2  0  0  0  0
  4  5  1  0  0  0  0
  5  6  2  0  0  0  0
  1  6  1  0  0  0  0
  6  7  1  0  0  0  0
  7  8  2  0  0  0  0
  8  9  1  0  0  0  0
  5  9  1  0  0  0  0
  7 10  1  0  0  0  0
 10 11  1  0  0  0  0
 11 12  1  0  0  0  0
 12 13  1  0  0  0  0
 12 14  2  0  0  0  0
 11 15  1  0  0  0  0
M  END
>  <Name>
L-Tryptophan

>  <CAS>
73-22-3

>  <Formula>
C11H12N2O2

>  <MolWt>
204.23 

>  <Bioactivity>
An essential amino acid that is necessary for normal growth in infants and for NITROGEN balance in adults. It is a precursor of INDOLE ALKALOIDS in plants. It is a precursor of SEROTONIN (hence its use as an antidepressant and sleep aid). It can be a precursor to NIACIN, albeit inefficiently, in mammals. 

>  <Pathways>
Amino Acids & Building Blocks

>  <Target>
Amino Acids and Derivatives

>  <Receptor>
Amino Acids and Derivatives

>  <Reference>
1. Tsuchiya W, et al. Nucleic Acids Symp Ser (Oxf). 2004;(48):185-6. 

$$$$
T1649
  Mrv1561503291623562D          

 19 20  0  0  1  0            999 V2000
   -1.2054   -2.3215    0.0000 C   0  0  1  0  0  0  0  0  0  0  0  0
   -1.4604   -3.1062    0.0000 O   0  0  0  0  0  0  0  0  0  0  0  0
   -2.2673   -3.2777    0.0000 C   0  0  0  0  0  0  0  0  0  0  0  0
   -2.5223   -4.0623    0.0000 P   0  0  0  0  0  0  0  0  0  0  0  0
   -2.7772   -4.8469    0.0000 O   0  0  0  0  0  0  0  0  0  0  0  0
   -1.7376   -4.3172    0.0000 O   0  0  0  0  0  0  0  0  0  0  0  0
   -3.3069   -3.8074    0.0000 O   0  0  0  0  0  0  0  0  0  0  0  0
   -0.3984   -2.1500    0.0000 C   0  0  0  0  0  0  0  0  0  0  0  0
   -0.1435   -1.3654    0.0000 N   0  0  0  0  0  0  0  0  0  0  0  0
    0.6411   -1.1104    0.0000 C   0  0  0  0  0  0  0  0  0  0  0  0
    0.6411   -0.2854    0.0000 C   0  0  0  0  0  0  0  0  0  0  0  0
   -0.1435   -0.0305    0.0000 N   0  0  0  0  0  0  0  0  0  0  0  0
   -0.6284   -0.6979    0.0000 C   0  0  0  0  0  0  0  0  0  0  0  0
    1.3556    0.1271    0.0000 C   0  0  0  0  0  0  0  0  0  0  0  0
    2.0701   -0.2854    0.0000 N   0  0  0  0  0  0  0  0  0  0  0  0
    2.0701   -1.1104    0.0000 C   0  0  0  0  0  0  0  0  0  0  0  0
    1.3556   -1.5229    0.0000 N   0  0  0  0  0  0  0  0  0  0  0  0
    1.3556    0.9521    0.0000 N   0  0  0  0  0  0  0  0  0  0  0  0
   -1.7575   -1.7084    0.0000 C   0  0  0  0  0  0  0  0  0  0  0  0
  1  2  1  0  0  0  0
  2  3  1  0  0  0  0
  3  4  1  0  0  0  0
  4  5  2  0  0  0  0
  4  6  1  0  0  0  0
  4  7  1  0  0  0  0
  1  8  1  0  0  0  0
  8  9  1  0  0  0  0
  9 10  1  0  0  0  0
 10 11  2  0  0  0  0
 11 12  1  0  0  0  0
 12 13  2  0  0  0  0
  9 13  1  0  0  0  0
 11 14  1  0  0  0  0
 14 15  2  0  0  0  0
 15 16  1  0  0  0  0
 16 17  2  0  0  0  0
 10 17  1  0  0  0  0
 14 18  1  0  0  0  0
  1 19  1  6  0  0  0
M  END
>  <Name>
Tenofovir

>  <CAS>
147127-20-6

>  <Formula>
C9H14N5O4P

>  <MolWt>
287.21 

>  <Bioactivity>
Tenofovir disoproxil fumarate (a prodrug of tenofovir), marketed by Gilead Sciences under the trade name Viread®, belongs to a class of antiretroviral drugs known as nucleotide analogue reverse transcriptase inhibitors (nRTIs), which block reverse transcriptase, an enzyme crucial to viral production in HIV-infected people.  

>  <Pathways>
Microbiology & Virology

>  <Target>
Antiviral;Reverse Transcriptase inhibitor

>  <Receptor>
Reverse Transcriptase

>  <Reference>
1. Fung HB, et al. Clin Ther. 2002 Oct; 24(10):1515-48.

$$$$
T0026
  Mrv1561503291623562D          

 19 20  0  0  0  0            999 V2000
   -0.7145   -2.0625    0.0000 C   0  0  0  0  0  0  0  0  0  0  0  0
   -0.7145   -2.8875    0.0000 C   0  0  0  0  0  0  0  0  0  0  0  0
   -1.4289   -3.3000    0.0000 C   0  0  0  0  0  0  0  0  0  0  0  0
   -2.1434   -2.8875    0.0000 C   0  0  0  0  0  0  0  0  0  0  0  0
   -2.1434   -2.0625    0.0000 C   0  0  0  0  0  0  0  0  0  0  0  0
   -1.4289   -1.6500    0.0000 C   0  0  0  0  0  0  0  0  0  0  0  0
   -1.4289   -0.8250    0.0000 S   0  0  0  0  0  0  0  0  0  0  0  0
   -1.4289    0.0000    0.0000 N   0  0  0  0  0  0  0  0  0  0  0  0
   -2.1434    0.4125    0.0000 C   0  0  0  0  0  0  0  0  0  0  0  0
   -2.8579    0.0000    0.0000 N   0  0  0  0  0  0  0  0  0  0  0  0
   -3.5724    0.4125    0.0000 C   0  0  0  0  0  0  0  0  0  0  0  0
   -3.5724    1.2375    0.0000 C   0  0  0  0  0  0  0  0  0  0  0  0
   -2.8579    1.6500    0.0000 N   0  0  0  0  0  0  0  0  0  0  0  0
   -2.1434    1.2375    0.0000 C   0  0  0  0  0  0  0  0  0  0  0  0
   -1.4289    1.6500    0.0000 O   0  0  0  0  0  0  0  0  0  0  0  0
   -0.7145    1.2375    0.0000 C   0  0  0  0  0  0  0  0  0  0  0  0
   -2.2539   -0.8250    0.0000 O   0  0  0  0  0  0  0  0  0  0  0  0
   -0.6039   -0.8250    0.0000 O   0  0  0  0  0  0  0  0  0  0  0  0
   -1.4289   -4.1250    0.0000 N   0  0  0  0  0  0  0  0  0  0  0  0
  1  2  2  0  0  0  0
  2  3  1  0  0  0  0
  3  4  2  0  0  0  0
  4  5  1  0  0  0  0
  5  6  2  0  0  0  0
  1  6  1  0  0  0  0
  6  7  1  0  0  0  0
  7  8  1  0  0  0  0
  8  9  1  0  0  0  0
  9 10  2  0  0  0  0
 10 11  1  0  0  0  0
 11 12  2  0  0  0  0
 12 13  1  0  0  0  0
 13 14  2  0  0  0  0
  9 14  1  0  0  0  0
 14 15  1  0  0  0  0
 15 16  1  0  0  0  0
  7 17  2  0  0  0  0
  7 18  2  0  0  0  0
  3 19  1  0  0  0  0
M  END
>  <Name>
Sulfalen

>  <CAS>
152-47-6

>  <Formula>
C11H12N4O3S

>  <MolWt>
280.30 

>  <Bioactivity>
Sulfalene is a long-acting sulfonamide antibiotic used for the treatment of chronic bronchitis, urinary tract infections and malaria.

>  <Pathways>
Microbiology & Virology

>  <Target>
Antibacterial

>  <Receptor>
DHPS

>  <Reference>
1. Brumfitt W, Hamilton-Miller JM. J Chemother. 1993 Dec;5(6):465-9

$$$$
T0942
  Mrv1561503291623562D          

 32 30  0  0  0  0            999 V2000
    0.4125    0.0000    0.0000 H   0  3  0  0  0  0  0  0  0  0  0  0
    3.5946    0.0000    0.0000 H   0  3  0  0  0  0  0  0  0  0  0  0
   -1.9096   -5.7037    0.0000 C   0  0  0  0  0  0  0  0  0  0  0  0
   -2.7197   -5.8596    0.0000 C   0  0  0  0  0  0  0  0  0  0  0  0
   -2.9898   -6.6391    0.0000 O   0  0  0  0  0  0  0  0  0  0  0  0
   -3.7999   -6.7950    0.0000 C   0  0  0  0  0  0  0  0  0  0  0  0
   -3.2598   -5.2359    0.0000 C   0  0  0  0  0  0  0  0  0  0  0  0
   -2.9898   -4.4564    0.0000 C   0  0  0  0  0  0  0  0  0  0  0  0
   -2.1796   -4.3005    0.0000 C   0  0  0  0  0  0  0  0  0  0  0  0
   -1.9096   -3.5209    0.0000 N   0  0  0  0  0  0  0  0  0  0  0  0
   -1.0995   -3.3650    0.0000 C   0  0  0  0  0  0  0  0  0  0  0  0
   -0.8294   -2.5855    0.0000 C   0  0  0  0  0  0  0  0  0  0  0  0
   -0.0193   -2.4296    0.0000 C   0  0  0  0  0  0  0  0  0  0  0  0
    0.5208   -3.0532    0.0000 C   0  0  0  0  0  0  0  0  0  0  0  0
    0.2508   -3.8327    0.0000 C   0  0  0  0  0  0  0  0  0  0  0  0
   -0.5594   -3.9887    0.0000 C   0  0  0  0  0  0  0  0  0  0  0  0
   -0.8294   -4.7682    0.0000 C   0  0  0  0  0  0  0  0  0  0  0  0
   -1.6396   -4.9241    0.0000 C   0  0  0  0  0  0  0  0  0  0  0  0
   -0.2893   -5.3918    0.0000 N   0  0  0  0  0  0  0  0  0  0  0  0
    0.5208   -5.2359    0.0000 C   0  0  0  0  0  0  0  0  0  0  0  0
    1.0609   -5.8596    0.0000 C   0  0  0  0  0  0  0  0  0  0  0  0
    1.8710   -5.7037    0.0000 C   0  0  0  0  0  0  0  0  0  0  0  0
    2.4111   -6.3273    0.0000 C   0  0  0  0  0  0  0  0  0  0  0  0
    3.2212   -6.1714    0.0000 N   0  0  0  0  0  0  0  0  0  0  0  0
    3.7613   -6.7950    0.0000 C   0  0  0  0  0  0  0  0  0  0  0  0
    4.5715   -6.6391    0.0000 C   0  0  0  0  0  0  0  0  0  0  0  0
    3.4913   -5.3918    0.0000 C   0  0  0  0  0  0  0  0  0  0  0  0
    4.3014   -5.2359    0.0000 C   0  0  0  0  0  0  0  0  0  0  0  0
    0.7908   -4.4564    0.0000 C   0  0  0  0  0  0  0  0  0  0  0  0
    0.2508   -1.6500    0.0000 Cl  0  0  0  0  0  0  0  0  0  0  0  0
   -0.4125    0.0000    0.0000 Cl  0  5  0  0  0  0  0  0  0  0  0  0
    2.7696    0.0000    0.0000 Cl  0  5  0  0  0  0  0  0  0  0  0  0
  3  4  2  0  0  0  0
  4  5  1  0  0  0  0
  5  6  1  0  0  0  0
  4  7  1  0  0  0  0
  7  8  2  0  0  0  0
  8  9  1  0  0  0  0
  9 10  2  0  0  0  0
 10 11  1  0  0  0  0
 11 12  2  0  0  0  0
 12 13  1  0  0  0  0
 13 14  2  0  0  0  0
 14 15  1  0  0  0  0
 15 16  2  0  0  0  0
 11 16  1  0  0  0  0
 16 17  1  0  0  0  0
 17 18  2  0  0  0  0
  3 18  1  0  0  0  0
  9 18  1  0  0  0  0
 17 19  1  0  0  0  0
 19 20  1  0  0  0  0
 20 21  1  0  0  0  0
 21 22  1  0  0  0  0
 22 23  1  0  0  0  0
 23 24  1  0  0  0  0
 24 25  1  0  0  0  0
 25 26  1  0  0  0  0
 24 27  1  0  0  0  0
 27 28  1  0  0  0  0
 20 29  1  0  0  0  0
 13 30  1  0  0  0  0
M  CHG  4   1   1   2   1  31  -1  32  -1
M  END
>  <Name>
Quinacrine 2HCl

>  <CAS>
69-05-6

>  <Formula>
C23H30CLN3O.2HCl

>  <MolWt>
472.88 

>  <Bioactivity>
An acridine derivative formerly widely used as an antimalarial but superseded by chloroquine in recent years. It has also been used as an anthelmintic and in the treatment of giardiasis and malignant effusions. It is used in cell biological experiments as an inhibitor of phospholipase A2.   .

>  <Pathways>
DNA Damage/DNA Repair

>  <Target>
DNA interaction; Histamine N-methyltransferase inhibitor; PLA inhibitor; PLCLP inhibitor

>  <Receptor>
DNA;Histamine N-methyltransferase; PLA2; PLCLP

>  <Reference>
1. Nuttle LC, et al. Am J Physiol. 1999 Apr;276(4 Pt 2):H1289-94. 

$$$$
59-06-3
  Mrv1561503291623562D          

 17 17  0  0  0  0            999 V2000
    1.4289   -0.0000    0.0000 C   0  0  0  0  0  0  0  0  0  0  0  0
    0.7145   -0.4125    0.0000 C   0  0  0  0  0  0  0  0  0  0  0  0
   -0.0000   -0.0000    0.0000 C   0  0  0  0  0  0  0  0  0  0  0  0
   -0.0000    0.8250    0.0000 C   0  0  0  0  0  0  0  0  0  0  0  0
    0.7145    1.2375    0.0000 C   0  0  0  0  0  0  0  0  0  0  0  0
    1.4289    0.8250    0.0000 C   0  0  0  0  0  0  0  0  0  0  0  0
    0.7145    2.0625    0.0000 N   0  0  0  0  0  0  0  0  0  0  0  0
    1.4289    2.4750    0.0000 C   0  0  0  0  0  0  0  0  0  0  0  0
    1.4289    3.3000    0.0000 C   0  0  0  0  0  0  0  0  0  0  0  0
    2.1434    2.0625    0.0000 O   0  0  0  0  0  0  0  0  0  0  0  0
   -0.7145   -0.4125    0.0000 O   0  0  0  0  0  0  0  0  0  0  0  0
   -0.7145   -1.2375    0.0000 C   0  0  0  0  0  0  0  0  0  0  0  0
   -1.4289   -1.6500    0.0000 C   0  0  0  0  0  0  0  0  0  0  0  0
    0.7145   -1.2375    0.0000 C   0  0  0  0  0  0  0  0  0  0  0  0
   -0.0000   -1.6500    0.0000 O   0  0  0  0  0  0  0  0  0  0  0  0
   -0.0000   -2.4750    0.0000 C   0  0  0  0  0  0  0  0  0  0  0  0
    1.4289   -1.6500    0.0000 O   0  0  0  0  0  0  0  0  0  0  0  0
  1  2  2  0  0  0  0
  2  3  1  0  0  0  0
  3  4  2  0  0  0  0
  4  5  1  0  0  0  0
  5  6  2  0  0  0  0
  1  6  1  0  0  0  0
  5  7  1  0  0  0  0
  7  8  1  0  0  0  0
  8  9  1  0  0  0  0
  8 10  2  0  0  0  0
  3 11  1  0  0  0  0
 11 12  1  0  0  0  0
 12 13  1  0  0  0  0
  2 14  1  0  0  0  0
 14 15  1  0  0  0  0
 15 16  1  0  0  0  0
 14 17  2  0  0  0  0
M  END
>  <Name>
Ethopabate

>  <CAS>
59-06-3

>  <Formula>
C12H15NO4

>  <MolWt>
237.25 

>  <Bioactivity>
Methyl 4-acetamido-2-ethoxybenzoate is an inhibitor of folate metabolism. It is used as a coccidiostat in poultry.

>  <Pathways>
Metabolism

>  <Target>
Folate metabolism

>  <Receptor>
Folate metabolism

>  <Reference>
1. El-Kosasy AM, et al. Spectrochim Acta A Mol Biomol Spectrosc. 2015 Nov 5;150:430-9. 

$$$$
96-83-3
  Mrv1561503291623562D          

 17 17  0  0  0  0            999 V2000
    1.4289    0.8250    0.0000 C   0  0  0  0  0  0  0  0  0  0  0  0
    1.4289    0.0000    0.0000 C   0  0  0  0  0  0  0  0  0  0  0  0
    0.7145   -0.4125    0.0000 C   0  0  0  0  0  0  0  0  0  0  0  0
   -0.0000    0.0000    0.0000 C   0  0  0  0  0  0  0  0  0  0  0  0
   -0.0000    0.8250    0.0000 C   0  0  0  0  0  0  0  0  0  0  0  0
    0.7145    1.2375    0.0000 C   0  0  0  0  0  0  0  0  0  0  0  0
    0.7145    2.0625    0.0000 I   0  0  0  0  0  0  0  0  0  0  0  0
   -0.7145    1.2375    0.0000 C   0  0  0  0  0  0  0  0  0  0  0  0
   -0.7145    2.0625    0.0000 C   0  0  0  0  0  0  0  0  0  0  0  0
   -1.4289    2.4750    0.0000 C   0  0  0  0  0  0  0  0  0  0  0  0
   -1.4289    3.3000    0.0000 O   0  0  0  0  0  0  0  0  0  0  0  0
   -2.1434    2.0625    0.0000 O   0  0  0  0  0  0  0  0  0  0  0  0
    0.0000    2.4750    0.0000 C   0  0  0  0  0  0  0  0  0  0  0  0
    0.0000    3.3000    0.0000 C   0  0  0  0  0  0  0  0  0  0  0  0
   -0.7145   -0.4125    0.0000 I   0  0  0  0  0  0  0  0  0  0  0  0
    0.7145   -1.2375    0.0000 N   0  0  0  0  0  0  0  0  0  0  0  0
    2.1434   -0.4125    0.0000 I   0  0  0  0  0  0  0  0  0  0  0  0
  1  2  2  0  0  0  0
  2  3  1  0  0  0  0
  3  4  2  0  0  0  0
  4  5  1  0  0  0  0
  5  6  2  0  0  0  0
  1  6  1  0  0  0  0
  6  7  1  0  0  0  0
  5  8  1  0  0  0  0
  8  9  1  0  0  0  0
  9 10  1  0  0  0  0
 10 11  1  0  0  0  0
 10 12  2  0  0  0  0
  9 13  1  0  0  0  0
 13 14  1  0  0  0  0
  4 15  1  0  0  0  0
  3 16  1  0  0  0  0
  2 17  1  0  0  0  0
M  END
>  <Name>
Iopanoic acid

>  <CAS>
96-83-3

>  <Formula>
C11H12I3NO2

>  <MolWt>
570.93 

>  <Bioactivity>
Iopanoic acid is an iodine-containing radiocontrast medium used in cholecystography.

>  <Pathways>
Others

>  <Target>
Others

>  <Receptor>
Others

>  <Reference>
1. Renko K, et al. Endocrinology. 2012 May;153(5):2506-13.

$$$$
81131-70-6
  Mrv1561503291623562D          

 31 31  0  0  1  0            999 V2000
    0.7145   -0.4125    0.0000 C   0  0  0  0  0  0  0  0  0  0  0  0
   -0.0000   -0.0000    0.0000 C   0  0  0  0  0  0  0  0  0  0  0  0
   -0.7145   -0.4125    0.0000 C   0  0  0  0  0  0  0  0  0  0  0  0
   -0.7145   -1.2375    0.0000 C   0  0  0  0  0  0  0  0  0  0  0  0
   -1.4289   -1.6500    0.0000 O   0  0  0  0  0  0  0  0  0  0  0  0
    0.0000   -1.6500    0.0000 C   0  0  0  0  0  0  0  0  0  0  0  0
    0.7145   -1.2375    0.0000 C   0  0  0  0  0  0  0  0  0  0  0  0
    1.4289   -1.6500    0.0000 O   0  0  0  0  0  0  0  0  0  0  0  0
    1.4289   -2.4750    0.0000 C   0  0  0  0  0  0  0  0  0  0  0  0
    0.7145   -2.8875    0.0000 O   0  0  0  0  0  0  0  0  0  0  0  0
    2.1434   -2.8875    0.0000 C   0  0  0  0  0  0  0  0  0  0  0  0
    2.1434   -3.7125    0.0000 C   0  0  0  0  0  0  0  0  0  0  0  0
    2.8579   -4.1250    0.0000 C   0  0  0  0  0  0  0  0  0  0  0  0
    2.8579   -2.4750    0.0000 C   0  0  0  0  0  0  0  0  0  0  0  0
   -0.0000    0.8250    0.0000 C   0  0  0  0  0  0  0  0  0  0  0  0
    0.7145    1.2375    0.0000 C   0  0  0  0  0  0  0  0  0  0  0  0
    1.4289    0.8250    0.0000 C   0  0  0  0  0  0  0  0  0  0  0  0
    1.4289   -0.0000    0.0000 C   0  0  0  0  0  0  0  0  0  0  0  0
    2.1434   -0.4125    0.0000 C   0  0  0  0  0  0  0  0  0  0  0  0
    2.8579   -0.0000    0.0000 C   0  0  0  0  0  0  0  0  0  0  0  0
    3.5724   -0.4125    0.0000 C   0  0  0  0  0  0  0  0  0  0  0  0
    3.5724   -1.2375    0.0000 O   0  0  0  0  0  0  0  0  0  0  0  0
    4.2868   -0.0000    0.0000 C   0  0  0  0  0  0  0  0  0  0  0  0
    5.0013   -0.4125    0.0000 C   0  0  0  0  0  0  0  0  0  0  0  0
    5.0013   -1.2375    0.0000 O   0  0  0  0  0  0  0  0  0  0  0  0
    5.7158   -0.0000    0.0000 C   0  0  0  0  0  0  0  0  0  0  0  0
    6.4302   -0.4125    0.0000 C   0  0  0  0  0  0  0  0  0  0  0  0
    7.1447   -0.0000    0.0000 O   0  5  0  0  0  0  0  0  0  0  0  0
    6.4302   -1.2375    0.0000 O   0  0  0  0  0  0  0  0  0  0  0  0
    2.1434    1.2375    0.0000 C   0  0  0  0  0  0  0  0  0  0  0  0
    7.8592    0.4125    0.0000 Na  0  3  0  0  0  0  0  0  0  0  0  0
  1  2  1  0  0  0  0
  2  3  2  0  0  0  0
  3  4  1  0  0  0  0
  4  5  1  0  0  0  0
  4  6  1  0  0  0  0
  6  7  1  0  0  0  0
  1  7  1  0  0  0  0
  7  8  1  0  0  0  0
  8  9  1  0  0  0  0
  9 10  2  0  0  0  0
  9 11  1  0  0  0  0
 11 12  1  0  0  0  0
 12 13  1  0  0  0  0
 11 14  1  0  0  0  0
  2 15  1  0  0  0  0
 15 16  2  0  0  0  0
 16 17  1  0  0  0  0
 17 18  1  0  0  0  0
  1 18  1  0  0  0  0
 18 19  1  0  0  0  0
 19 20  1  0  0  0  0
 20 21  1  0  0  0  0
 21 22  1  0  0  0  0
 21 23  1  0  0  0  0
 23 24  1  0  0  0  0
 24 25  1  0  0  0  0
 24 26  1  0  0  0  0
 26 27  1  0  0  0  0
 27 28  1  0  0  0  0
 27 29  2  0  0  0  0
 17 30  1  0  0  0  0
M  CHG  2  28  -1  31   1
M  END
>  <Name>
Pravastatin sodium

>  <CAS>
81131-70-6

>  <Formula>
C23H35NaO7

>  <MolWt>
447.52 

>  <Bioactivity>
An antilipemic fungal metabolite isolated from cultures of Nocardia autotrophica. It acts as a competitive inhibitor of HMG CoA reductase (HYDROXYMETHYLGLUTARYL COA REDUCTASES). 

>  <Pathways>
Metabolism

>  <Target>
HMG-CoA Reductase inhibitor

>  <Receptor>
HMG-CoA Reductase

>  <Reference>
1. Kurakata S, et al. Immunopharmacology, 1996, 34(1), 51-61.

$$$$
81-81-2
  Mrv1561503291623562D          

 23 25  0  0  0  0            999 V2000
   -0.7145    1.2375    0.0000 C   0  0  0  0  0  0  0  0  0  0  0  0
   -1.4289    0.8250    0.0000 C   0  0  0  0  0  0  0  0  0  0  0  0
   -1.4289   -0.0000    0.0000 C   0  0  0  0  0  0  0  0  0  0  0  0
   -0.7145   -0.4125    0.0000 C   0  0  0  0  0  0  0  0  0  0  0  0
   -0.7145   -1.2375    0.0000 C   0  0  0  0  0  0  0  0  0  0  0  0
   -0.0000   -1.6500    0.0000 O   0  0  0  0  0  0  0  0  0  0  0  0
    0.7145   -1.2375    0.0000 C   0  0  0  0  0  0  0  0  0  0  0  0
    0.7145   -0.4125    0.0000 C   0  0  0  0  0  0  0  0  0  0  0  0
   -0.0000   -0.0000    0.0000 C   0  0  0  0  0  0  0  0  0  0  0  0
   -0.0000    0.8250    0.0000 O   0  0  0  0  0  0  0  0  0  0  0  0
    1.4289    0.0000    0.0000 C   0  0  0  0  0  0  0  0  0  0  0  0
    2.1434   -0.4125    0.0000 C   0  0  0  0  0  0  0  0  0  0  0  0
    2.1434   -1.2375    0.0000 C   0  0  0  0  0  0  0  0  0  0  0  0
    1.4289   -1.6500    0.0000 C   0  0  0  0  0  0  0  0  0  0  0  0
   -1.4289   -1.6500    0.0000 O   0  0  0  0  0  0  0  0  0  0  0  0
   -2.1434   -0.4125    0.0000 C   0  0  0  0  0  0  0  0  0  0  0  0
   -2.8579   -0.0000    0.0000 C   0  0  0  0  0  0  0  0  0  0  0  0
   -2.8579    0.8250    0.0000 O   0  0  0  0  0  0  0  0  0  0  0  0
   -3.5724   -0.4125    0.0000 C   0  0  0  0  0  0  0  0  0  0  0  0
   -2.1434    1.2375    0.0000 C   0  0  0  0  0  0  0  0  0  0  0  0
   -2.1434    2.0625    0.0000 C   0  0  0  0  0  0  0  0  0  0  0  0
   -1.4289    2.4750    0.0000 C   0  0  0  0  0  0  0  0  0  0  0  0
   -0.7145    2.0625    0.0000 C   0  0  0  0  0  0  0  0  0  0  0  0
  1  2  2  0  0  0  0
  2  3  1  0  0  0  0
  3  4  1  0  0  0  0
  4  5  2  0  0  0  0
  5  6  1  0  0  0  0
  6  7  1  0  0  0  0
  7  8  2  0  0  0  0
  8  9  1  0  0  0  0
  4  9  1  0  0  0  0
  9 10  2  0  0  0  0
  8 11  1  0  0  0  0
 11 12  2  0  0  0  0
 12 13  1  0  0  0  0
 13 14  2  0  0  0  0
  7 14  1  0  0  0  0
  5 15  1  0  0  0  0
  3 16  1  0  0  0  0
 16 17  1  0  0  0  0
 17 18  2  0  0  0  0
 17 19  1  0  0  0  0
  2 20  1  0  0  0  0
 20 21  2  0  0  0  0
 21 22  1  0  0  0  0
 22 23  2  0  0  0  0
  1 23  1  0  0  0  0
M  END
>  <Name>
Warfarin

>  <CAS>
81-81-2

>  <Formula>
C19H16O4

>  <MolWt>
308.33 

>  <Bioactivity>
An anticoagulant that acts by inhibiting the synthesis of vitamin K-dependent coagulation factors. Warfarin is indicated for the prophylaxis and/or treatment of venous thrombosis and its extension, pulmonary embolism, and atrial fibrillation with embolization. It is also used as an adjunct in the prophylaxis of systemic embolism after myocardial infarction. Warfarin is also used as a rodenticide.  

>  <Pathways>
Enzyme

>  <Target>
VKOR inhibitor

>  <Receptor>
VKOR complex subunit 1

>  <Reference>
1. Gebauer M. Bioorg Med Chem. 2007, 15(6):2414-20. 

$$$$
64-77-7
  Mrv1561503291623562D          

 18 18  0  0  0  0            999 V2000
   -5.7158   -1.6500    0.0000 C   0  0  0  0  0  0  0  0  0  0  0  0
   -5.7158   -2.4750    0.0000 C   0  0  0  0  0  0  0  0  0  0  0  0
   -5.0013   -2.8875    0.0000 S   0  0  0  0  0  0  0  0  0  0  0  0
   -4.2868   -3.3000    0.0000 N   0  0  0  0  0  0  0  0  0  0  0  0
   -3.5724   -2.8875    0.0000 C   0  0  0  0  0  0  0  0  0  0  0  0
   -2.8579   -3.3000    0.0000 N   0  0  0  0  0  0  0  0  0  0  0  0
   -2.1434   -2.8875    0.0000 C   0  0  0  0  0  0  0  0  0  0  0  0
   -1.4289   -3.3000    0.0000 C   0  0  0  0  0  0  0  0  0  0  0  0
   -0.7145   -2.8875    0.0000 C   0  0  0  0  0  0  0  0  0  0  0  0
    0.0000   -3.3000    0.0000 C   0  0  0  0  0  0  0  0  0  0  0  0
   -3.5724   -2.0625    0.0000 O   0  0  0  0  0  0  0  0  0  0  0  0
   -4.5888   -2.1730    0.0000 O   0  0  0  0  0  0  0  0  0  0  0  0
   -5.4138   -3.6020    0.0000 O   0  0  0  0  0  0  0  0  0  0  0  0
   -6.4302   -2.8875    0.0000 C   0  0  0  0  0  0  0  0  0  0  0  0
   -7.1447   -2.4750    0.0000 C   0  0  0  0  0  0  0  0  0  0  0  0
   -7.1447   -1.6500    0.0000 C   0  0  0  0  0  0  0  0  0  0  0  0
   -6.4302   -1.2375    0.0000 C   0  0  0  0  0  0  0  0  0  0  0  0
   -7.8592   -1.2375    0.0000 C   0  0  0  0  0  0  0  0  0  0  0  0
  1  2  2  0  0  0  0
  2  3  1  0  0  0  0
  3  4  1  0  0  0  0
  4  5  1  0  0  0  0
  5  6  1  0  0  0  0
  6  7  1  0  0  0  0
  7  8  1  0  0  0  0
  8  9  1  0  0  0  0
  9 10  1  0  0  0  0
  5 11  2  0  0  0  0
  3 12  2  0  0  0  0
  3 13  2  0  0  0  0
  2 14  1  0  0  0  0
 14 15  2  0  0  0  0
 15 16  1  0  0  0  0
 16 17  2  0  0  0  0
  1 17  1  0  0  0  0
 16 18  1  0  0  0  0
M  END
>  <Name>
Tolbutamide

>  <CAS>
64-77-7

>  <Formula>
C12H18N2O3S

>  <MolWt>
270.35 

>  <Bioactivity>
Tolbutamide is an inhibitor of potassium channel, used for type II diabetes.

>  <Pathways>
Membrane Transporter/Ion Channel

>  <Target>
Potassium Channel

>  <Receptor>
Potassium Channel

>  <Reference>
1. Wray HL, et al, Biochem Biophys Res Commun. 1973, 53(1), 291-294.

$$$$
T0468
  Mrv1561503291623562D          

 17 17  0  0  0  0            999 V2000
   -1.1270    3.3809    0.0000 C   0  0  0  0  0  0  0  0  0  0  0  0
   -0.7145    2.6664    0.0000 C   0  0  0  0  0  0  0  0  0  0  0  0
   -1.1270    1.9520    0.0000 C   0  0  0  0  0  0  0  0  0  0  0  0
   -1.9520    1.9520    0.0000 C   0  0  0  0  0  0  0  0  0  0  0  0
   -2.3645    2.6664    0.0000 C   0  0  0  0  0  0  0  0  0  0  0  0
   -1.9520    3.3809    0.0000 C   0  0  0  0  0  0  0  0  0  0  0  0
   -2.3645    1.2375    0.0000 C   0  0  0  0  0  0  0  0  0  0  0  0
   -0.7145    1.2375    0.0000 N   0  0  0  0  0  0  0  0  0  0  0  0
    0.1105    1.2375    0.0000 C   0  0  0  0  0  0  0  0  0  0  0  0
    0.5230    0.5230    0.0000 C   0  0  0  0  0  0  0  0  0  0  0  0
    1.3480    0.5230    0.0000 N   0  0  0  0  0  0  0  0  0  0  0  0
    1.7605   -0.1914    0.0000 C   0  0  0  0  0  0  0  0  0  0  0  0
    2.5855   -0.1914    0.0000 C   0  0  0  0  0  0  0  0  0  0  0  0
    1.7605    1.2375    0.0000 C   0  0  0  0  0  0  0  0  0  0  0  0
    2.5855    1.2375    0.0000 C   0  0  0  0  0  0  0  0  0  0  0  0
    0.5230    1.9520    0.0000 O   0  0  0  0  0  0  0  0  0  0  0  0
    0.1105    2.6664    0.0000 C   0  0  0  0  0  0  0  0  0  0  0  0
  1  2  2  0  0  0  0
  2  3  1  0  0  0  0
  3  4  2  0  0  0  0
  4  5  1  0  0  0  0
  5  6  2  0  0  0  0
  1  6  1  0  0  0  0
  4  7  1  0  0  0  0
  3  8  1  0  0  0  0
  8  9  1  0  0  0  0
  9 10  1  0  0  0  0
 10 11  1  0  0  0  0
 11 12  1  0  0  0  0
 12 13  1  0  0  0  0
 11 14  1  0  0  0  0
 14 15  1  0  0  0  0
  9 16  2  0  0  0  0
  2 17  1  0  0  0  0
M  END
>  <Name>
Xylocaine

>  <CAS>
137-58-6

>  <Formula>
C14H22N2O

>  <MolWt>
234.34 

>  <Bioactivity>
A local anesthetic and cardiac depressant used as an antiarrhythmia agent. Its actions are more intense and its effects more prolonged than those of procaine but its duration of action is shorter than that of bupivacaine or prilocaine. 

>  <Pathways>
Membrane Transporter/Ion Channel; JAK/STAT Signaling

>  <Target>
EGFR inhibitor;Sodium Channel inhibitor

>  <Receptor>
EGFR;Sodium channel

>  <Reference>
1. Sheets PL, et al. J Physiol. 2007 Jun 15;581(Pt 3):1019-31. 

$$$$
T0909
  Mrv1561503291623562D          

 17 18  0  0  0  0            999 V2000
   -0.7145   -1.2375    0.0000 C   0  0  0  0  0  0  0  0  0  0  0  0
   -0.0000   -1.6500    0.0000 C   0  0  0  0  0  0  0  0  0  0  0  0
    0.7145   -1.2375    0.0000 C   0  0  0  0  0  0  0  0  0  0  0  0
    0.7145   -0.4125    0.0000 C   0  0  0  0  0  0  0  0  0  0  0  0
    1.4289    0.0000    0.0000 N   0  0  0  0  0  0  0  0  0  0  0  0
    2.1434   -0.4125    0.0000 C   0  0  0  0  0  0  0  0  0  0  0  0
    2.1434   -1.2375    0.0000 C   0  0  0  0  0  0  0  0  0  0  0  0
    1.4289   -1.6500    0.0000 C   0  0  0  0  0  0  0  0  0  0  0  0
    1.4289   -2.4750    0.0000 O   0  0  0  0  0  0  0  0  0  0  0  0
    2.8579   -1.6500    0.0000 C   0  0  0  0  0  0  0  0  0  0  0  0
    3.5724   -1.2375    0.0000 O   0  0  0  0  0  0  0  0  0  0  0  0
    2.8579   -2.4750    0.0000 O   0  0  0  0  0  0  0  0  0  0  0  0
    1.4289    0.8250    0.0000 C   0  0  0  0  0  0  0  0  0  0  0  0
    2.1434    1.2375    0.0000 C   0  0  0  0  0  0  0  0  0  0  0  0
   -0.0000    0.0000    0.0000 N   0  0  0  0  0  0  0  0  0  0  0  0
   -0.7145   -0.4125    0.0000 C   0  0  0  0  0  0  0  0  0  0  0  0
   -1.4289   -0.0000    0.0000 C   0  0  0  0  0  0  0  0  0  0  0  0
  1  2  2  0  0  0  0
  2  3  1  0  0  0  0
  3  4  2  0  0  0  0
  4  5  1  0  0  0  0
  5  6  1  0  0  0  0
  6  7  2  0  0  0  0
  7  8  1  0  0  0  0
  3  8  1  0  0  0  0
  8  9  2  0  0  0  0
  7 10  1  0  0  0  0
 10 11  2  0  0  0  0
 10 12  1  0  0  0  0
  5 13  1  0  0  0  0
 13 14  1  0  0  0  0
  4 15  1  0  0  0  0
 15 16  2  0  0  0  0
  1 16  1  0  0  0  0
 16 17  1  0  0  0  0
M  END
>  <Name>
Nalidixic acid

>  <CAS>
389-08-2

>  <Formula>
C12H12N2O3

>  <MolWt>
232.24 

>  <Bioactivity>
A synthetic 1,8-naphthyridine antimicrobial agent with a limited bacteriocidal spectrum. It is an inhibitor of the A subunit of bacterial DNA GYRASE. 

>  <Pathways>
DNA Damage/DNA Repair

>  <Target>
Topoisomerase inhibitor

>  <Receptor>
Topoisomerase II

>  <Reference>
1. Emmerson AM, Jones AM. J Antimicrob Chemother. 2003 May;51 Suppl 1:13-20.

$$$$
520-26-3
  Mrv1561503291623562D          

 43 47  0  0  1  0            999 V2000
   -0.7145   -1.2375    0.0000 C   0  0  1  0  0  0  0  0  0  0  0  0
   -0.0000   -1.6500    0.0000 O   0  0  0  0  0  0  0  0  0  0  0  0
    0.7145   -1.2375    0.0000 C   0  0  0  0  0  0  0  0  0  0  0  0
    0.7145   -0.4125    0.0000 C   0  0  0  0  0  0  0  0  0  0  0  0
   -0.0000    0.0000    0.0000 C   0  0  0  0  0  0  0  0  0  0  0  0
   -0.7145   -0.4125    0.0000 C   0  0  0  0  0  0  0  0  0  0  0  0
   -0.0000    0.8250    0.0000 O   0  0  0  0  0  0  0  0  0  0  0  0
    1.4289    0.0000    0.0000 C   0  0  0  0  0  0  0  0  0  0  0  0
    2.1434   -0.4125    0.0000 C   0  0  0  0  0  0  0  0  0  0  0  0
    2.1434   -1.2375    0.0000 C   0  0  0  0  0  0  0  0  0  0  0  0
    1.4289   -1.6500    0.0000 C   0  0  0  0  0  0  0  0  0  0  0  0
    2.8579   -1.6500    0.0000 O   0  0  0  0  0  0  0  0  0  0  0  0
    3.5724   -1.2375    0.0000 C   0  0  2  0  0  0  0  0  0  0  0  0
    3.5724   -0.4125    0.0000 O   0  0  0  0  0  0  0  0  0  0  0  0
    4.2868   -0.0000    0.0000 C   0  0  1  0  0  0  0  0  0  0  0  0
    5.0013   -0.4125    0.0000 C   0  0  1  0  0  0  0  0  0  0  0  0
    5.7158   -0.0000    0.0000 O   0  0  0  0  0  0  0  0  0  0  0  0
    5.0013   -1.2375    0.0000 C   0  0  1  0  0  0  0  0  0  0  0  0
    4.2868   -1.6500    0.0000 C   0  0  1  0  0  0  0  0  0  0  0  0
    4.2868   -2.4750    0.0000 O   0  0  0  0  0  0  0  0  0  0  0  0
    5.7158   -1.6500    0.0000 O   0  0  0  0  0  0  0  0  0  0  0  0
    4.2868    0.8250    0.0000 C   0  0  0  0  0  0  0  0  0  0  0  0
    5.0013    1.2375    0.0000 O   0  0  0  0  0  0  0  0  0  0  0  0
    5.0013    2.0625    0.0000 C   0  0  1  0  0  0  0  0  0  0  0  0
    4.2868    2.4750    0.0000 C   0  0  1  0  0  0  0  0  0  0  0  0
    4.2868    3.3000    0.0000 C   0  0  1  0  0  0  0  0  0  0  0  0
    5.0013    3.7125    0.0000 C   0  0  1  0  0  0  0  0  0  0  0  0
    5.0013    4.5375    0.0000 O   0  0  0  0  0  0  0  0  0  0  0  0
    5.7158    3.3000    0.0000 C   0  0  1  0  0  0  0  0  0  0  0  0
    5.7158    2.4750    0.0000 O   0  0  0  0  0  0  0  0  0  0  0  0
    6.4302    3.7125    0.0000 C   0  0  0  0  0  0  0  0  0  0  0  0
    3.5724    3.7125    0.0000 O   0  0  0  0  0  0  0  0  0  0  0  0
    3.5724    2.0625    0.0000 O   0  0  0  0  0  0  0  0  0  0  0  0
    1.4289    0.8250    0.0000 O   0  0  0  0  0  0  0  0  0  0  0  0
   -1.4289   -1.6500    0.0000 C   0  0  0  0  0  0  0  0  0  0  0  0
   -1.4289   -2.4750    0.0000 C   0  0  0  0  0  0  0  0  0  0  0  0
   -2.1434   -2.8875    0.0000 C   0  0  0  0  0  0  0  0  0  0  0  0
   -2.8579   -2.4750    0.0000 C   0  0  0  0  0  0  0  0  0  0  0  0
   -2.8579   -1.6500    0.0000 C   0  0  0  0  0  0  0  0  0  0  0  0
   -2.1434   -1.2375    0.0000 C   0  0  0  0  0  0  0  0  0  0  0  0
   -3.5724   -1.2375    0.0000 O   0  0  0  0  0  0  0  0  0  0  0  0
   -3.5724   -2.8875    0.0000 O   0  0  0  0  0  0  0  0  0  0  0  0
   -3.5724   -3.7125    0.0000 C   0  0  0  0  0  0  0  0  0  0  0  0
  1  2  1  0  0  0  0
  2  3  1  0  0  0  0
  3  4  2  0  0  0  0
  4  5  1  0  0  0  0
  5  6  1  0  0  0  0
  1  6  1  0  0  0  0
  5  7  2  0  0  0  0
  4  8  1  0  0  0  0
  8  9  2  0  0  0  0
  9 10  1  0  0  0  0
 10 11  2  0  0  0  0
  3 11  1  0  0  0  0
 10 12  1  0  0  0  0
 13 12  1  6  0  0  0
 13 14  1  0  0  0  0
 14 15  1  0  0  0  0
 15 16  1  0  0  0  0
 16 17  1  1  0  0  0
 16 18  1  0  0  0  0
 18 19  1  0  0  0  0
 13 19  1  0  0  0  0
 19 20  1  1  0  0  0
 18 21  1  6  0  0  0
 15 22  1  6  0  0  0
 22 23  1  0  0  0  0
 24 23  1  1  0  0  0
 24 25  1  0  0  0  0
 25 26  1  0  0  0  0
 26 27  1  0  0  0  0
 27 28  1  1  0  0  0
 27 29  1  0  0  0  0
 29 30  1  0  0  0  0
 24 30  1  0  0  0  0
 29 31  1  6  0  0  0
 26 32  1  6  0  0  0
 25 33  1  6  0  0  0
  8 34  1  0  0  0  0
  1 35  1  6  0  0  0
 35 36  2  0  0  0  0
 36 37  1  0  0  0  0
 37 38  2  0  0  0  0
 38 39  1  0  0  0  0
 39 40  2  0  0  0  0
 35 40  1  0  0  0  0
 39 41  1  0  0  0  0
 38 42  1  0  0  0  0
 42 43  1  0  0  0  0
M  END
>  <Name>
Hesperidin

>  <CAS>
520-26-3

>  <Formula>
C28H34O15

>  <MolWt>
610.56 

>  <Bioactivity>
Hesperidin is a flavanone glycoside found abundantly in citrus fruits.

>  <Pathways>
Others

>  <Target>
Others

>  <Receptor>
Others

>  <Reference>
1. Inderjit, Dakshini KM. J Chem Ecol. 1991 Aug;17(8):1585-91. 

$$$$
61-54-1
  Mrv1561503291623562D          

 12 13  0  0  0  0            999 V2000
    3.2789    1.2375    0.0000 C   0  0  0  0  0  0  0  0  0  0  0  0
    3.9934    0.8250    0.0000 C   0  0  0  0  0  0  0  0  0  0  0  0
    3.9934    0.0000    0.0000 C   0  0  0  0  0  0  0  0  0  0  0  0
    3.2789   -0.4125    0.0000 C   0  0  0  0  0  0  0  0  0  0  0  0
    2.5645   -0.0000    0.0000 C   0  0  0  0  0  0  0  0  0  0  0  0
    2.5645    0.8250    0.0000 C   0  0  0  0  0  0  0  0  0  0  0  0
    1.7798    1.0799    0.0000 C   0  0  0  0  0  0  0  0  0  0  0  0
    1.2949    0.4125    0.0000 C   0  0  0  0  0  0  0  0  0  0  0  0
    1.7798   -0.2549    0.0000 N   0  0  0  0  0  0  0  0  0  0  0  0
    1.5249    1.8646    0.0000 C   0  0  0  0  0  0  0  0  0  0  0  0
    2.0769    2.4777    0.0000 C   0  0  0  0  0  0  0  0  0  0  0  0
    1.8220    3.2623    0.0000 N   0  0  0  0  0  0  0  0  0  0  0  0
  1  2  2  0  0  0  0
  2  3  1  0  0  0  0
  3  4  2  0  0  0  0
  4  5  1  0  0  0  0
  5  6  2  0  0  0  0
  1  6  1  0  0  0  0
  6  7  1  0  0  0  0
  7  8  2  0  0  0  0
  8  9  1  0  0  0  0
  5  9  1  0  0  0  0
  7 10  1  0  0  0  0
 10 11  1  0  0  0  0
 11 12  1  0  0  0  0
M  END
>  <Name>
Tryptamine

>  <CAS>
61-54-1

>  <Formula>
C10H12N2

>  <MolWt>
160.22 

>  <Bioactivity>
Tryptamine is a monoamine alkaloid found in plants, fungi, and animals. It contains an indole ring structure, and is structurally similar to the amino acid tryptophan, from which it derives its name. Tryptamine is found in trace amounts in the brains of mammals and is believed to play a role as a neuromodulator or neurotransmitter.

>  <Pathways>
Metabolism

>  <Target>
Dehydrogenase

>  <Receptor>
AADH

>  <Reference>
1. Berman HM, et al. Nucleic Acids Res. 2000 Jan 1;28(1):235-42. 

$$$$
T1027
  Mrv1561503291623562D          

 21 23  0  0  0  0            999 V2000
   -0.0000    0.0000    0.0000 C   0  0  0  0  0  0  0  0  0  0  0  0
   -0.7145   -0.4125    0.0000 C   0  0  0  0  0  0  0  0  0  0  0  0
   -1.4289    0.0000    0.0000 O   0  0  0  0  0  0  0  0  0  0  0  0
   -0.7145   -1.2375    0.0000 C   0  0  0  0  0  0  0  0  0  0  0  0
   -0.0000   -1.6500    0.0000 C   0  0  0  0  0  0  0  0  0  0  0  0
    0.7145   -1.2375    0.0000 C   0  0  0  0  0  0  0  0  0  0  0  0
    0.7145   -0.4125    0.0000 C   0  0  0  0  0  0  0  0  0  0  0  0
    1.4289    0.0000    0.0000 O   0  0  0  0  0  0  0  0  0  0  0  0
    2.1434   -0.4125    0.0000 C   0  0  0  0  0  0  0  0  0  0  0  0
    2.1434   -1.2375    0.0000 C   0  0  0  0  0  0  0  0  0  0  0  0
    1.4289   -1.6500    0.0000 C   0  0  0  0  0  0  0  0  0  0  0  0
    1.4289   -2.4750    0.0000 O   0  0  0  0  0  0  0  0  0  0  0  0
    2.8579    0.0000    0.0000 C   0  0  0  0  0  0  0  0  0  0  0  0
    2.8579    0.8250    0.0000 C   0  0  0  0  0  0  0  0  0  0  0  0
    3.5724    1.2375    0.0000 C   0  0  0  0  0  0  0  0  0  0  0  0
    4.2868    0.8250    0.0000 C   0  0  0  0  0  0  0  0  0  0  0  0
    5.0013    1.2375    0.0000 O   0  0  0  0  0  0  0  0  0  0  0  0
    4.2868   -0.0000    0.0000 C   0  0  0  0  0  0  0  0  0  0  0  0
    3.5724   -0.4125    0.0000 C   0  0  0  0  0  0  0  0  0  0  0  0
    3.5724    2.0625    0.0000 O   0  0  0  0  0  0  0  0  0  0  0  0
   -0.0000   -2.4750    0.0000 O   0  0  0  0  0  0  0  0  0  0  0  0
  1  2  2  0  0  0  0
  2  3  1  0  0  0  0
  2  4  1  0  0  0  0
  4  5  2  0  0  0  0
  5  6  1  0  0  0  0
  6  7  2  0  0  0  0
  1  7  1  0  0  0  0
  7  8  1  0  0  0  0
  8  9  1  0  0  0  0
  9 10  2  0  0  0  0
 10 11  1  0  0  0  0
  6 11  1  0  0  0  0
 11 12  2  0  0  0  0
  9 13  1  0  0  0  0
 13 14  2  0  0  0  0
 14 15  1  0  0  0  0
 15 16  2  0  0  0  0
 16 17  1  0  0  0  0
 16 18  1  0  0  0  0
 18 19  2  0  0  0  0
 13 19  1  0  0  0  0
 15 20  1  0  0  0  0
  5 21  1  0  0  0  0
M  END
>  <Name>
Luteolin

>  <CAS>
491-70-3

>  <Formula>
C15H10O6

>  <MolWt>
286.24 

>  <Bioactivity>
Luteolin is a flavone, a type of flavonoid. Like all flavonoids, it has a yellow crystalline appearance.

>  <Pathways>
Immunology/Inflammation

>  <Target>
TNF-alpha inhibitor, IL inhibitor; NF-?B inhibitor

>  <Receptor>
TNF-?, IL-6, NF-?B, AP-1

>  <Reference>
1. Yu MC, et al. Eur J Pharmacol, 2010, 627(1-3), 269-275.

$$$$
139755-83-2
  Mrv1561503291623562D          

 33 36  0  0  0  0            999 V2000
    4.7812    1.9354    0.0000 C   0  0  0  0  0  0  0  0  0  0  0  0
    4.0668    2.3479    0.0000 C   0  0  0  0  0  0  0  0  0  0  0  0
    3.3523    1.9354    0.0000 C   0  0  0  0  0  0  0  0  0  0  0  0
    3.3523    1.1104    0.0000 N   0  0  0  0  0  0  0  0  0  0  0  0
    2.6378    0.6979    0.0000 C   0  0  0  0  0  0  0  0  0  0  0  0
    1.9233    1.1104    0.0000 C   0  0  0  0  0  0  0  0  0  0  0  0
    1.9233    1.9354    0.0000 C   0  0  0  0  0  0  0  0  0  0  0  0
    2.6378    2.3479    0.0000 N   0  0  0  0  0  0  0  0  0  0  0  0
    1.1387    2.1904    0.0000 C   0  0  0  0  0  0  0  0  0  0  0  0
    0.6538    1.5229    0.0000 N   0  0  0  0  0  0  0  0  0  0  0  0
    1.1387    0.8555    0.0000 N   0  0  0  0  0  0  0  0  0  0  0  0
    0.8838    0.0709    0.0000 C   0  0  0  0  0  0  0  0  0  0  0  0
    0.8838    2.9750    0.0000 C   0  0  0  0  0  0  0  0  0  0  0  0
    0.0768    3.1465    0.0000 C   0  0  0  0  0  0  0  0  0  0  0  0
   -0.1781    3.9312    0.0000 C   0  0  0  0  0  0  0  0  0  0  0  0
    2.6378   -0.1271    0.0000 O   0  0  0  0  0  0  0  0  0  0  0  0
    4.0668    3.1729    0.0000 C   0  0  0  0  0  0  0  0  0  0  0  0
    4.7812    3.5854    0.0000 C   0  0  0  0  0  0  0  0  0  0  0  0
    5.4957    3.1729    0.0000 C   0  0  0  0  0  0  0  0  0  0  0  0
    5.4957    2.3479    0.0000 C   0  0  0  0  0  0  0  0  0  0  0  0
    6.2102    1.9354    0.0000 S   0  0  0  0  0  0  0  0  0  0  0  0
    6.9246    1.5229    0.0000 N   0  0  0  0  0  0  0  0  0  0  0  0
    7.6391    1.9354    0.0000 C   0  0  0  0  0  0  0  0  0  0  0  0
    8.3536    1.5229    0.0000 C   0  0  0  0  0  0  0  0  0  0  0  0
    8.3536    0.6979    0.0000 N   0  0  0  0  0  0  0  0  0  0  0  0
    9.0681    0.2854    0.0000 C   0  0  0  0  0  0  0  0  0  0  0  0
    7.6391    0.2854    0.0000 C   0  0  0  0  0  0  0  0  0  0  0  0
    6.9246    0.6979    0.0000 C   0  0  0  0  0  0  0  0  0  0  0  0
    5.7977    1.2210    0.0000 O   0  0  0  0  0  0  0  0  0  0  0  0
    6.6227    2.6499    0.0000 O   0  0  0  0  0  0  0  0  0  0  0  0
    3.3523    3.5854    0.0000 O   0  0  0  0  0  0  0  0  0  0  0  0
    2.6378    3.1729    0.0000 C   0  0  0  0  0  0  0  0  0  0  0  0
    1.9233    3.5854    0.0000 C   0  0  0  0  0  0  0  0  0  0  0  0
  1  2  2  0  0  0  0
  2  3  1  0  0  0  0
  3  4  2  0  0  0  0
  4  5  1  0  0  0  0
  5  6  1  0  0  0  0
  6  7  2  0  0  0  0
  7  8  1  0  0  0  0
  3  8  1  0  0  0  0
  7  9  1  0  0  0  0
  9 10  2  0  0  0  0
 10 11  1  0  0  0  0
  6 11  1  0  0  0  0
 11 12  1  0  0  0  0
  9 13  1  0  0  0  0
 13 14  1  0  0  0  0
 14 15  1  0  0  0  0
  5 16  2  0  0  0  0
  2 17  1  0  0  0  0
 17 18  2  0  0  0  0
 18 19  1  0  0  0  0
 19 20  2  0  0  0  0
  1 20  1  0  0  0  0
 20 21  1  0  0  0  0
 21 22  1  0  0  0  0
 22 23  1  0  0  0  0
 23 24  1  0  0  0  0
 24 25  1  0  0  0  0
 25 26  1  0  0  0  0
 25 27  1  0  0  0  0
 27 28  1  0  0  0  0
 22 28  1  0  0  0  0
 21 29  2  0  0  0  0
 21 30  2  0  0  0  0
 17 31  1  0  0  0  0
 31 32  1  0  0  0  0
 32 33  1  0  0  0  0
M  END
>  <Name>
Sildenafil

>  <CAS>
139755-83-2

>  <Formula>
C28H38N6O11S

>  <MolWt>
474.58 

>  <Bioactivity>
Sildenfail is a vasoactive agent used to treat erectile dysfunction and reduce symptoms in patients with pulmonary arterial hypertension (PAH). Sildenafil elevates levels of the second messenger, cGMP, by inhibiting its breakdown via phosphodiesterase type 5 (PDE5). PDE5 is found in particularly high concentrations in the corpus cavernosum, erectile tissue of the penis. It is also found in the retina and vascular endothelium. Increased cGMP results in vasodilation which facilitates generation and maintenance of an erection. The vasodilatory effects of sildenafil also help reduce symptoms of PAH. 

>  <Pathways>
Metabolism

>  <Target>
PDE inhibitor

>  <Receptor>
PDE5, PDE6

>  <Reference>
1.Nehra A, et al. World J Urol, 2001, 19(1), 40-45.

$$$$
318-98-9
  Mrv1561503291623562D          

 21 20  0  0  0  0            999 V2000
    0.4125    0.0000    0.0000 H   0  3  0  0  0  0  0  0  0  0  0  0
    4.4416    1.0421    0.0000 C   0  0  0  0  0  0  0  0  0  0  0  0
    4.4416    0.2171    0.0000 C   0  0  0  0  0  0  0  0  0  0  0  0
    5.1561   -0.1954    0.0000 O   0  0  0  0  0  0  0  0  0  0  0  0
    5.8706    0.2171    0.0000 C   0  0  0  0  0  0  0  0  0  0  0  0
    6.5850   -0.1954    0.0000 C   0  0  0  0  0  0  0  0  0  0  0  0
    6.5850   -1.0204    0.0000 O   0  0  0  0  0  0  0  0  0  0  0  0
    7.2995    0.2171    0.0000 C   0  0  0  0  0  0  0  0  0  0  0  0
    8.0140   -0.1954    0.0000 N   0  0  0  0  0  0  0  0  0  0  0  0
    8.7285    0.2171    0.0000 C   0  0  0  0  0  0  0  0  0  0  0  0
    9.4429   -0.1954    0.0000 C   0  0  0  0  0  0  0  0  0  0  0  0
    8.7285    1.0421    0.0000 C   0  0  0  0  0  0  0  0  0  0  0  0
    3.7272   -0.1954    0.0000 C   0  0  0  0  0  0  0  0  0  0  0  0
    3.7272   -1.0204    0.0000 C   0  0  0  0  0  0  0  0  0  0  0  0
    3.0127   -1.4329    0.0000 C   0  0  0  0  0  0  0  0  0  0  0  0
    2.2982   -1.0204    0.0000 C   0  0  0  0  0  0  0  0  0  0  0  0
    2.2982   -0.1954    0.0000 C   0  0  0  0  0  0  0  0  0  0  0  0
    3.0127    0.2171    0.0000 C   0  0  0  0  0  0  0  0  0  0  0  0
    3.0127    1.0421    0.0000 C   0  0  0  0  0  0  0  0  0  0  0  0
    3.7272    1.4546    0.0000 C   0  0  0  0  0  0  0  0  0  0  0  0
   -0.4125    0.0000    0.0000 Cl  0  5  0  0  0  0  0  0  0  0  0  0
  2  3  2  0  0  0  0
  3  4  1  0  0  0  0
  4  5  1  0  0  0  0
  5  6  1  0  0  0  0
  6  7  1  0  0  0  0
  6  8  1  0  0  0  0
  8  9  1  0  0  0  0
  9 10  1  0  0  0  0
 10 11  1  0  0  0  0
 10 12  1  0  0  0  0
  3 13  1  0  0  0  0
 13 14  2  0  0  0  0
 14 15  1  0  0  0  0
 15 16  2  0  0  0  0
 16 17  1  0  0  0  0
 17 18  2  0  0  0  0
 13 18  1  0  0  0  0
 18 19  1  0  0  0  0
 19 20  2  0  0  0  0
  2 20  1  0  0  0  0
M  CHG  2   1   1  21  -1
M  END
>  <Name>
Propranolol HCl

>  <CAS>
318-98-9

>  <Formula>
C16H22ClNO2

>  <MolWt>
295.81 

>  <Bioactivity>
Propranolol Hydrochloride is a widely used non-cardioselective beta-adrenergic antagonist.

>  <Pathways>
Neuroscience;GPCR/G protein

>  <Target>
5-HT receptor antagonist;Adrenergic Receptor antagonist

>  <Receptor>
5-HT receptor;Adrenergic receptor

>  <Reference>
1. Rouget C, et al. Biol Reprod. 2006 Jan;74(1):209-16. 

$$$$
T1312
  Mrv1561503291623562D          

 31 32  0  0  1  0            999 V2000
    0.7608   -1.0362    0.0000 C   0  0  0  0  0  0  0  0  0  0  0  0
    1.4959   -1.4107    0.0000 S   0  0  0  0  0  0  0  0  0  0  0  0
    1.3668   -2.2256    0.0000 C   0  0  0  0  0  0  0  0  0  0  0  0
    0.5520   -2.3546    0.0000 C   0  0  0  0  0  0  0  0  0  0  0  0
    0.1775   -1.6196    0.0000 N   0  0  0  0  0  0  0  0  0  0  0  0
   -0.4059   -1.0362    0.0000 C   0  0  0  0  0  0  0  0  0  0  0  0
   -1.2309   -1.0362    0.0000 O   0  0  0  0  0  0  0  0  0  0  0  0
    0.1775   -0.4528    0.0000 C   0  0  0  0  0  0  0  0  0  0  0  0
    0.1775    0.3722    0.0000 N   0  0  0  0  0  0  0  0  0  0  0  0
   -0.5370    0.7847    0.0000 C   0  0  0  0  0  0  0  0  0  0  0  0
   -1.2515    0.3722    0.0000 O   0  0  0  0  0  0  0  0  0  0  0  0
   -0.5370    1.6097    0.0000 C   0  0  0  0  0  0  0  0  0  0  0  0
   -1.2515    2.0222    0.0000 C   0  0  0  0  0  0  0  0  0  0  0  0
   -1.9660    1.6097    0.0000 O   0  0  0  0  0  0  0  0  0  0  0  0
   -2.6804    2.0222    0.0000 C   0  0  0  0  0  0  0  0  0  0  0  0
   -3.3949    1.6097    0.0000 C   0  0  0  0  0  0  0  0  0  0  0  0
   -1.2515    2.8472    0.0000 C   0  0  0  0  0  0  0  0  0  0  0  0
   -0.5370    3.2597    0.0000 C   0  0  0  0  0  0  0  0  0  0  0  0
    0.1775    2.8472    0.0000 C   0  0  0  0  0  0  0  0  0  0  0  0
    0.8919    3.2597    0.0000 C   0  0  0  0  0  0  0  0  0  0  0  0
    1.6064    2.8472    0.0000 C   0  0  0  0  0  0  0  0  0  0  0  0
    1.6064    2.0222    0.0000 C   0  0  0  0  0  0  0  0  0  0  0  0
    0.8919    1.6097    0.0000 C   0  0  0  0  0  0  0  0  0  0  0  0
    0.1775    2.0222    0.0000 C   0  0  0  0  0  0  0  0  0  0  0  0
    0.1775   -3.0897    0.0000 C   0  0  0  0  0  0  0  0  0  0  0  0
    0.6268   -3.7816    0.0000 O   0  5  0  0  0  0  0  0  0  0  0  0
   -0.6464   -3.1329    0.0000 O   0  0  0  0  0  0  0  0  0  0  0  0
    2.1615   -2.4474    0.0000 C   0  0  0  0  0  0  0  0  0  0  0  0
    1.5887   -3.0202    0.0000 C   0  0  0  0  0  0  0  0  0  0  0  0
    1.0761   -4.4735    0.0000 Na  0  3  0  0  0  0  0  0  0  0  0  0
    4.5186    0.0000    0.0000 O   0  0  0  0  0  0  0  0  0  0  0  0
  1  2  1  0  0  0  0
  2  3  1  0  0  0  0
  3  4  1  0  0  0  0
  4  5  1  0  0  0  0
  1  5  1  0  0  0  0
  5  6  1  0  0  0  0
  6  7  2  0  0  0  0
  6  8  1  0  0  0  0
  1  8  1  0  0  0  0
  8  9  1  0  0  0  0
  9 10  1  0  0  0  0
 10 11  2  0  0  0  0
 10 12  1  0  0  0  0
 12 13  2  0  0  0  0
 13 14  1  0  0  0  0
 14 15  1  0  0  0  0
 15 16  1  0  0  0  0
 13 17  1  0  0  0  0
 17 18  2  0  0  0  0
 18 19  1  0  0  0  0
 19 20  2  0  0  0  0
 20 21  1  0  0  0  0
 21 22  2  0  0  0  0
 22 23  1  0  0  0  0
 23 24  2  0  0  0  0
 12 24  1  0  0  0  0
 19 24  1  0  0  0  0
  4 25  1  0  0  0  0
 25 26  1  0  0  0  0
 25 27  2  0  0  0  0
  3 28  1  0  0  0  0
  3 29  1  0  0  0  0
M  CHG  2  26  -1  30   1
M  END
>  <Name>
nafcillin sodium

>  <CAS>
7177-50-6

>  <Formula>
C21H21N2O5SNa·H2O

>  <MolWt>
454.47 

>  <Bioactivity>
Nafcillin sodium salt monohydrate is a semi-synthetic antibiotic related to penicillin.

>  <Pathways>
Microbiology & Virology

>  <Target>
Antibiotic

>  <Receptor>
PBPs

>  <Reference>
1. Tan AK, et al. Biochem J, 1992, 281 ( Pt 1), 191-196.

$$$$
T1678
  Mrv1561503291623562D          

 65 67  0  0  1  0            999 V2000
    0.0687   -0.8590    0.0000 C   0  0  1  0  0  0  0  0  0  0  0  0
    0.4949   -0.1526    0.0000 O   0  0  0  0  0  0  0  0  0  0  0  0
    0.0963    0.5697    0.0000 C   0  0  0  0  0  0  0  0  0  0  0  0
   -0.7285    0.5857    0.0000 C   0  0  0  0  0  0  0  0  0  0  0  0
   -1.1548   -0.1207    0.0000 C   0  0  0  0  0  0  0  0  0  0  0  0
   -1.9796   -0.1047    0.0000 O   0  0  0  0  0  0  0  0  0  0  0  0
   -0.7562   -0.8430    0.0000 C   0  0  0  0  0  0  0  0  0  0  0  0
   -1.1271    1.3080    0.0000 C   0  0  0  0  0  0  0  0  0  0  0  0
   -0.7009    2.0143    0.0000 O   0  0  0  0  0  0  0  0  0  0  0  0
   -1.9520    1.3239    0.0000 O   0  0  0  0  0  0  0  0  0  0  0  0
    0.3294    1.5770    0.0000 C   0  0  0  0  0  0  0  0  0  0  0  0
    0.6924    2.3179    0.0000 C   0  0  0  0  0  0  0  0  0  0  0  0
   -0.0139    2.7441    0.0000 O   0  0  0  0  0  0  0  0  0  0  0  0
    0.0020    3.5689    0.0000 C   0  0  1  0  0  0  0  0  0  0  0  0
    0.7244    3.9675    0.0000 O   0  0  0  0  0  0  0  0  0  0  0  0
    0.7403    4.7924    0.0000 C   0  0  1  0  0  0  0  0  0  0  0  0
    0.0340    5.2186    0.0000 C   0  0  1  0  0  0  0  0  0  0  0  0
    0.0499    6.0435    0.0000 O   0  0  0  0  0  0  0  0  0  0  0  0
   -0.6884    4.8200    0.0000 C   0  0  2  0  0  0  0  0  0  0  0  0
   -1.3947    5.2463    0.0000 N   0  0  0  0  0  0  0  0  0  0  0  0
   -0.7043    3.9952    0.0000 C   0  0  2  0  0  0  0  0  0  0  0  0
   -1.4266    3.5966    0.0000 O   0  0  0  0  0  0  0  0  0  0  0  0
    1.4626    5.1910    0.0000 C   0  0  0  0  0  0  0  0  0  0  0  0
    1.1786    2.9844    0.0000 C   0  0  0  0  0  0  0  0  0  0  0  0
    1.7732    3.5563    0.0000 C   0  0  0  0  0  0  0  0  0  0  0  0
    2.4580    4.0164    0.0000 C   0  0  0  0  0  0  0  0  0  0  0  0
    3.2123    4.3505    0.0000 C   0  0  0  0  0  0  0  0  0  0  0  0
    4.0132    4.5486    0.0000 C   0  0  0  0  0  0  0  0  0  0  0  0
    4.8363    4.6046    0.0000 C   0  0  0  0  0  0  0  0  0  0  0  0
    5.6566    4.5168    0.0000 C   0  0  0  0  0  0  0  0  0  0  0  0
    6.4492    4.2879    0.0000 C   0  0  0  0  0  0  0  0  0  0  0  0
    7.1900    3.9248    0.0000 C   0  0  0  0  0  0  0  0  0  0  0  0
    7.8565    3.4386    0.0000 C   0  0  0  0  0  0  0  0  0  0  0  0
    8.4285    2.8441    0.0000 C   0  0  0  0  0  0  0  0  0  0  0  0
    8.8885    2.1592    0.0000 C   0  0  0  0  0  0  0  0  0  0  0  0
    9.2227    1.4049    0.0000 C   0  0  0  0  0  0  0  0  0  0  0  0
    9.4207    0.6041    0.0000 C   0  0  0  0  0  0  0  0  0  0  0  0
    9.4767   -0.2190    0.0000 C   0  0  1  0  0  0  0  0  0  0  0  0
    9.3889   -1.0393    0.0000 C   0  0  1  0  0  0  0  0  0  0  0  0
   10.1985   -1.1983    0.0000 O   0  0  0  0  0  0  0  0  0  0  0  0
    9.1600   -1.8320    0.0000 C   0  0  2  0  0  0  0  0  0  0  0  0
    8.7970   -2.5728    0.0000 C   0  0  1  0  0  0  0  0  0  0  0  0
    8.3108   -3.2393    0.0000 O   0  0  0  0  0  0  0  0  0  0  0  0
    7.7162   -3.8113    0.0000 C   0  0  0  0  0  0  0  0  0  0  0  0
    8.2342   -4.4534    0.0000 O   0  0  0  0  0  0  0  0  0  0  0  0
    7.0314   -4.2713    0.0000 C   0  0  0  0  0  0  0  0  0  0  0  0
    6.2771   -4.6054    0.0000 C   0  0  0  0  0  0  0  0  0  0  0  0
    6.5442   -5.3860    0.0000 O   0  0  0  0  0  0  0  0  0  0  0  0
    5.4762   -4.8035    0.0000 C   0  0  0  0  0  0  0  0  0  0  0  0
    4.6531   -4.8595    0.0000 C   0  0  0  0  0  0  0  0  0  0  0  0
    4.6372   -5.6843    0.0000 O   0  0  0  0  0  0  0  0  0  0  0  0
    3.8328   -4.7717    0.0000 C   0  0  0  0  0  0  0  0  0  0  0  0
    3.0402   -4.5428    0.0000 C   0  0  0  0  0  0  0  0  0  0  0  0
    2.7431   -5.3124    0.0000 O   0  0  0  0  0  0  0  0  0  0  0  0
    2.2994   -4.1797    0.0000 C   0  0  0  0  0  0  0  0  0  0  0  0
    1.6329   -3.6935    0.0000 C   0  0  0  0  0  0  0  0  0  0  0  0
    1.0609   -3.0990    0.0000 C   0  0  0  0  0  0  0  0  0  0  0  0
    0.4188   -3.6170    0.0000 O   0  0  0  0  0  0  0  0  0  0  0  0
    0.6009   -2.4142    0.0000 C   0  0  0  0  0  0  0  0  0  0  0  0
   -0.1215   -2.8128    0.0000 O   0  0  0  0  0  0  0  0  0  0  0  0
    0.2667   -1.6599    0.0000 C   0  0  0  0  0  0  0  0  0  0  0  0
    9.5033   -2.9990    0.0000 C   0  0  0  0  0  0  0  0  0  0  0  0
    9.9297   -2.1291    0.0000 C   0  0  0  0  0  0  0  0  0  0  0  0
   10.3016   -0.2350    0.0000 C   0  0  0  0  0  0  0  0  0  0  0  0
   -0.4461   -1.5037    0.0000 O   0  0  0  0  0  0  0  0  0  0  0  0
  1  2  1  0  0  0  0
  2  3  1  0  0  0  0
  3  4  1  0  0  0  0
  4  5  1  0  0  0  0
  5  6  1  0  0  0  0
  5  7  1  0  0  0  0
  1  7  1  0  0  0  0
  4  8  1  0  0  0  0
  8  9  2  0  0  0  0
  8 10  1  0  0  0  0
  3 11  1  0  0  0  0
 11 12  1  0  0  0  0
 12 13  1  0  0  0  0
 14 13  1  6  0  0  0
 14 15  1  0  0  0  0
 15 16  1  0  0  0  0
 16 17  1  0  0  0  0
 17 18  1  6  0  0  0
 17 19  1  0  0  0  0
 19 20  1  1  0  0  0
 19 21  1  0  0  0  0
 14 21  1  0  0  0  0
 21 22  1  1  0  0  0
 16 23  1  1  0  0  0
 12 24  1  0  0  0  0
 24 25  2  0  0  0  0
 25 26  1  0  0  0  0
 26 27  2  0  0  0  0
 27 28  1  0  0  0  0
 28 29  2  0  0  0  0
 29 30  1  0  0  0  0
 30 31  2  0  0  0  0
 31 32  1  0  0  0  0
 32 33  1  0  0  0  0
 33 34  1  0  0  0  0
 34 35  2  0  0  0  0
 35 36  1  0  0  0  0
 36 37  2  0  0  0  0
 37 38  1  0  0  0  0
 38 39  1  0  0  0  0
 39 40  1  1  0  0  0
 39 41  1  0  0  0  0
 41 42  1  0  0  0  0
 42 43  1  0  0  0  0
 43 44  1  0  0  0  0
 44 45  2  0  0  0  0
 44 46  1  0  0  0  0
 46 47  1  0  0  0  0
 47 48  1  0  0  0  0
 47 49  1  0  0  0  0
 49 50  1  0  0  0  0
 50 51  1  0  0  0  0
 50 52  1  0  0  0  0
 52 53  1  0  0  0  0
 53 54  1  0  0  0  0
 53 55  1  0  0  0  0
 55 56  1  0  0  0  0
 56 57  1  0  0  0  0
 57 58  1  0  0  0  0
 57 59  1  0  0  0  0
 59 60  1  0  0  0  0
 59 61  1  0  0  0  0
  1 61  1  0  0  0  0
 42 62  1  6  0  0  0
 41 63  1  1  0  0  0
 38 64  1  6  0  0  0
  1 65  1  1  0  0  0
M  END
>  <Name>
Nystatin (Fungicidin)

>  <CAS>
1400-61-9

>  <Formula>
C47H75NO17

>  <MolWt>
926.10 

>  <Bioactivity>
Nystatin, which belongs to the polyene group of antimycotics, is frequently used as a topical agent in the treatment of oro-pharyngeal candidosis.

>  <Pathways>
Microbiology & Virology

>  <Target>
Antibiotic

>  <Receptor>
Others

>  <Reference>
1. Wallace TL, et al. Antimicrob Agents Chemother,?997, 41(10), 2238-2243.

$$$$
912-60-7
  Mrv1561503291623562D          

 31 34  0  0  1  0            999 V2000
   -0.0356   -0.8488    0.0000 C   0  0  2  0  0  0  0  0  0  0  0  0
   -0.8425   -1.0203    0.0000 C   0  0  0  0  0  0  0  0  0  0  0  0
   -1.0975   -1.8050    0.0000 C   0  0  0  0  0  0  0  0  0  0  0  0
   -1.9044   -1.9765    0.0000 C   0  0  0  0  0  0  0  0  0  0  0  0
   -2.4565   -1.3634    0.0000 C   0  0  0  0  0  0  0  0  0  0  0  0
   -2.2015   -0.5788    0.0000 C   0  0  0  0  0  0  0  0  0  0  0  0
   -1.3946   -0.4072    0.0000 C   0  0  0  0  0  0  0  0  0  0  0  0
   -1.1396    0.3774    0.0000 O   0  0  0  0  0  0  0  0  0  0  0  0
   -1.6917    0.9905    0.0000 C   0  0  0  0  0  0  0  0  0  0  0  0
   -2.8690   -0.0938    0.0000 O   0  0  0  0  0  0  0  0  0  0  0  0
   -3.5364   -0.5788    0.0000 C   0  0  0  0  0  0  0  0  0  0  0  0
   -3.2815   -1.3634    0.0000 O   0  0  0  0  0  0  0  0  0  0  0  0
   -0.5454   -2.4181    0.0000 C   0  0  0  0  0  0  0  0  0  0  0  0
    0.2615   -2.2465    0.0000 C   0  0  0  0  0  0  0  0  0  0  0  0
    0.5165   -1.4619    0.0000 N   0  3  0  0  0  0  0  0  0  0  0  0
    1.3234   -1.2904    0.0000 C   0  0  0  0  0  0  0  0  0  0  0  0
    0.2194   -0.0642    0.0000 C   0  0  0  0  0  0  0  0  0  0  0  0
    1.0040    0.1907    0.0000 C   0  0  0  0  0  0  0  0  0  0  0  0
    1.0040    1.0157    0.0000 C   0  0  0  0  0  0  0  0  0  0  0  0
    0.2194    1.2707    0.0000 C   0  0  0  0  0  0  0  0  0  0  0  0
   -0.2655    0.6032    0.0000 O   0  0  0  0  0  0  0  0  0  0  0  0
   -0.0356    2.0553    0.0000 O   0  0  0  0  0  0  0  0  0  0  0  0
    1.7185    1.4282    0.0000 C   0  0  0  0  0  0  0  0  0  0  0  0
    2.4329    1.0157    0.0000 C   0  0  0  0  0  0  0  0  0  0  0  0
    2.4329    0.1907    0.0000 C   0  0  0  0  0  0  0  0  0  0  0  0
    1.7185   -0.2218    0.0000 C   0  0  0  0  0  0  0  0  0  0  0  0
    3.1474    1.4282    0.0000 O   0  0  0  0  0  0  0  0  0  0  0  0
    3.1474    2.2532    0.0000 C   0  0  0  0  0  0  0  0  0  0  0  0
    1.7185    2.2532    0.0000 O   0  0  0  0  0  0  0  0  0  0  0  0
    2.4329    2.6657    0.0000 C   0  0  0  0  0  0  0  0  0  0  0  0
    5.5046    0.0000    0.0000 Cl  0  5  0  0  0  0  0  0  0  0  0  0
  1  2  1  0  0  0  0
  2  3  2  0  0  0  0
  3  4  1  0  0  0  0
  4  5  2  0  0  0  0
  5  6  1  0  0  0  0
  6  7  2  0  0  0  0
  2  7  1  0  0  0  0
  7  8  1  0  0  0  0
  8  9  1  0  0  0  0
  6 10  1  0  0  0  0
 10 11  1  0  0  0  0
 11 12  1  0  0  0  0
  5 12  1  0  0  0  0
  3 13  1  0  0  0  0
 13 14  1  0  0  0  0
 14 15  1  0  0  0  0
  1 15  1  0  0  0  0
 15 16  1  0  0  0  0
  1 17  1  1  0  0  0
 17 18  1  0  0  0  0
 18 19  2  0  0  0  0
 19 20  1  0  0  0  0
 20 21  1  0  0  0  0
 17 21  1  0  0  0  0
 20 22  2  0  0  0  0
 19 23  1  0  0  0  0
 23 24  2  0  0  0  0
 24 25  1  0  0  0  0
 25 26  2  0  0  0  0
 18 26  1  0  0  0  0
 24 27  1  0  0  0  0
 27 28  1  0  0  0  0
 23 29  1  0  0  0  0
 29 30  1  0  0  0  0
M  CHG  2  15   1  31  -1
M  END
>  <Name>
Noscapine HCl

>  <CAS>
912-60-7

>  <Formula>
C22H23NO7.HCl.xH2O

>  <MolWt>
449.88 

>  <Bioactivity>
A naturally occurring opium alkaloid that is a centrally acting antitussive agent.


>  <Pathways>
Neuroscience

>  <Target>
Opioid Receptor

>  <Receptor>
Opioid alkaloid

>  <Reference>
1. Chen X, Facchini PJ. Plant J. 2014 Jan;77(2):173-84.

$$$$
579-56-6
  Mrv1561503291623562D          

 24 23  0  0  0  0            999 V2000
    0.4125    0.0000    0.0000 H   0  3  0  0  0  0  0  0  0  0  0  0
    4.4416    0.9187    0.0000 C   0  0  0  0  0  0  0  0  0  0  0  0
    4.4416    0.0938    0.0000 C   0  0  0  0  0  0  0  0  0  0  0  0
    5.1561   -0.3187    0.0000 C   0  0  0  0  0  0  0  0  0  0  0  0
    5.1561   -1.1437    0.0000 O   0  0  0  0  0  0  0  0  0  0  0  0
    5.8706    0.0938    0.0000 C   0  0  0  0  0  0  0  0  0  0  0  0
    6.5850   -0.3187    0.0000 N   0  0  0  0  0  0  0  0  0  0  0  0
    7.2995    0.0938    0.0000 C   0  0  0  0  0  0  0  0  0  0  0  0
    8.0140   -0.3187    0.0000 C   0  0  0  0  0  0  0  0  0  0  0  0
    8.7285    0.0938    0.0000 O   0  0  0  0  0  0  0  0  0  0  0  0
    9.4429   -0.3187    0.0000 C   0  0  0  0  0  0  0  0  0  0  0  0
   10.1574    0.0938    0.0000 C   0  0  0  0  0  0  0  0  0  0  0  0
   10.8719   -0.3187    0.0000 C   0  0  0  0  0  0  0  0  0  0  0  0
   10.8719   -1.1437    0.0000 C   0  0  0  0  0  0  0  0  0  0  0  0
   10.1574   -1.5562    0.0000 C   0  0  0  0  0  0  0  0  0  0  0  0
    9.4429   -1.1437    0.0000 C   0  0  0  0  0  0  0  0  0  0  0  0
    7.2995    0.9188    0.0000 C   0  0  0  0  0  0  0  0  0  0  0  0
    5.8706    0.9188    0.0000 C   0  0  0  0  0  0  0  0  0  0  0  0
    3.7272   -0.3187    0.0000 C   0  0  0  0  0  0  0  0  0  0  0  0
    3.0127    0.0937    0.0000 C   0  0  0  0  0  0  0  0  0  0  0  0
    3.0127    0.9187    0.0000 C   0  0  0  0  0  0  0  0  0  0  0  0
    3.7272    1.3312    0.0000 C   0  0  0  0  0  0  0  0  0  0  0  0
    2.2982    1.3312    0.0000 O   0  0  0  0  0  0  0  0  0  0  0  0
   -0.4125    0.0000    0.0000 Cl  0  5  0  0  0  0  0  0  0  0  0  0
  2  3  2  0  0  0  0
  3  4  1  0  0  0  0
  4  5  1  0  0  0  0
  4  6  1  0  0  0  0
  6  7  1  0  0  0  0
  7  8  1  0  0  0  0
  8  9  1  0  0  0  0
  9 10  1  0  0  0  0
 10 11  1  0  0  0  0
 11 12  2  0  0  0  0
 12 13  1  0  0  0  0
 13 14  2  0  0  0  0
 14 15  1  0  0  0  0
 15 16  2  0  0  0  0
 11 16  1  0  0  0  0
  8 17  1  0  0  0  0
  6 18  1  0  0  0  0
  3 19  1  0  0  0  0
 19 20  2  0  0  0  0
 20 21  1  0  0  0  0
 21 22  2  0  0  0  0
  2 22  1  0  0  0  0
 21 23  1  0  0  0  0
M  CHG  2   1   1  24  -1
M  END
>  <Name>
Isoxsuprine HCl

>  <CAS>
579-56-6

>  <Formula>
C18H24ClNO3

>  <MolWt>
337.84 

>  <Bioactivity>
A beta-adrenergic agonist that causes direct relaxation of uterine and vascular smooth muscle. Its vasodilating actions are greater on the arteries supplying skeletal muscle than on those supplying skin. It is used in the treatment of peripheral vascular disease and in premature labor. 

>  <Pathways>
GPCR/G Protein

>  <Target>
Adrenergic Receptor agonist

>  <Receptor>
?-adrenergic receptor

>  <Reference>
1. Gozo EG Jr, Yebes RB. Chest. 1984 Nov;86(5):736-40.

$$$$
T0342
  Mrv1561503291623562D          

 71 74  0  0  0  0            999 V2000
   -4.3018    0.1360    0.0000 N   0  0  0  0  0  0  0  0  0  0  0  0
   -3.6887    0.6880    0.0000 C   0  0  0  0  0  0  0  0  0  0  0  0
   -2.9742    0.2755    0.0000 C   0  0  0  0  0  0  0  0  0  0  0  0
   -3.1457   -0.5314    0.0000 C   0  0  0  0  0  0  0  0  0  0  0  0
   -2.6608   -1.1989    0.0000 C   0  0  0  0  0  0  0  0  0  0  0  0
   -2.9963   -1.9526    0.0000 C   0  0  0  0  0  0  0  0  0  0  0  0
   -3.8168   -2.0388    0.0000 C   0  0  0  0  0  0  0  0  0  0  0  0
   -4.3018   -1.3714    0.0000 C   0  0  0  0  0  0  0  0  0  0  0  0
   -3.9662   -0.6177    0.0000 C   0  0  0  0  0  0  0  0  0  0  0  0
   -2.2597    0.6880    0.0000 C   0  0  0  0  0  0  0  0  0  0  0  0
   -2.2597    1.5130    0.0000 C   0  0  0  0  0  0  0  0  0  0  0  0
   -2.9742    1.9255    0.0000 C   0  0  0  0  0  0  0  0  0  0  0  0
   -3.6887    1.5130    0.0000 C   0  0  0  0  0  0  0  0  0  0  0  0
   -1.5452    0.2755    0.0000 O   0  0  0  0  0  0  0  0  0  0  0  0
   -0.8308    0.6880    0.0000 C   0  0  0  0  0  0  0  0  0  0  0  0
   -0.1163    0.2755    0.0000 C   0  0  0  0  0  0  0  0  0  0  0  0
   -0.1163   -0.5495    0.0000 O   0  0  0  0  0  0  0  0  0  0  0  0
    0.5982    0.6880    0.0000 C   0  0  0  0  0  0  0  0  0  0  0  0
    1.3126    0.2755    0.0000 N   0  0  0  0  0  0  0  0  0  0  0  0
    2.0271    0.6880    0.0000 C   0  0  0  0  0  0  0  0  0  0  0  0
    2.7416    0.2755    0.0000 C   0  0  0  0  0  0  0  0  0  0  0  0
    3.4561    0.6880    0.0000 O   0  0  0  0  0  0  0  0  0  0  0  0
    4.1705    0.2755    0.0000 C   0  0  0  0  0  0  0  0  0  0  0  0
    4.8850    0.6880    0.0000 C   0  0  0  0  0  0  0  0  0  0  0  0
    5.5995    0.2755    0.0000 C   0  0  0  0  0  0  0  0  0  0  0  0
    5.5995   -0.5495    0.0000 C   0  0  0  0  0  0  0  0  0  0  0  0
    4.8850   -0.9620    0.0000 C   0  0  0  0  0  0  0  0  0  0  0  0
    4.1705   -0.5495    0.0000 C   0  0  0  0  0  0  0  0  0  0  0  0
    3.4561   -0.9620    0.0000 O   0  0  0  0  0  0  0  0  0  0  0  0
    2.7416   -0.5495    0.0000 C   0  0  0  0  0  0  0  0  0  0  0  0
    8.3102   -0.8250    0.0000 O   0  0  0  0  0  0  0  0  0  0  0  0
    8.3102    0.0000    0.0000 P   0  0  0  0  0  0  0  0  0  0  0  0
    8.3102    0.8250    0.0000 O   0  0  0  0  0  0  0  0  0  0  0  0
    9.1352   -0.0000    0.0000 O   0  0  0  0  0  0  0  0  0  0  0  0
    7.4852    0.0000    0.0000 O   0  0  0  0  0  0  0  0  0  0  0  0
   11.8459   -0.8250    0.0000 O   0  0  0  0  0  0  0  0  0  0  0  0
   11.8459    0.0000    0.0000 P   0  0  0  0  0  0  0  0  0  0  0  0
   11.8459    0.8250    0.0000 O   0  0  0  0  0  0  0  0  0  0  0  0
   12.6709   -0.0000    0.0000 O   0  0  0  0  0  0  0  0  0  0  0  0
   11.0209    0.0000    0.0000 O   0  0  0  0  0  0  0  0  0  0  0  0
   -0.8308   -4.9263    0.0000 C   0  0  0  0  0  0  0  0  0  0  0  0
   -1.5452   -5.3388    0.0000 O   0  0  0  0  0  0  0  0  0  0  0  0
   -2.2597   -4.9263    0.0000 C   0  0  0  0  0  0  0  0  0  0  0  0
   -2.2597   -4.1013    0.0000 C   0  0  0  0  0  0  0  0  0  0  0  0
   -2.9742   -3.6888    0.0000 C   0  0  0  0  0  0  0  0  0  0  0  0
   -3.6887   -4.1013    0.0000 C   0  0  0  0  0  0  0  0  0  0  0  0
   -3.6887   -4.9263    0.0000 C   0  0  0  0  0  0  0  0  0  0  0  0
   -2.9742   -5.3388    0.0000 C   0  0  0  0  0  0  0  0  0  0  0  0
   -3.1457   -6.1458    0.0000 C   0  0  0  0  0  0  0  0  0  0  0  0
   -2.6608   -6.8132    0.0000 C   0  0  0  0  0  0  0  0  0  0  0  0
   -2.9963   -7.5669    0.0000 C   0  0  0  0  0  0  0  0  0  0  0  0
   -3.8168   -7.6531    0.0000 C   0  0  0  0  0  0  0  0  0  0  0  0
   -4.3018   -6.9857    0.0000 C   0  0  0  0  0  0  0  0  0  0  0  0
   -3.9662   -6.2320    0.0000 C   0  0  0  0  0  0  0  0  0  0  0  0
   -4.3018   -5.4783    0.0000 N   0  0  0  0  0  0  0  0  0  0  0  0
   -0.1163   -5.3388    0.0000 C   0  0  0  0  0  0  0  0  0  0  0  0
   -0.1163   -6.1638    0.0000 O   0  0  0  0  0  0  0  0  0  0  0  0
    0.5982   -4.9263    0.0000 C   0  0  0  0  0  0  0  0  0  0  0  0
    1.3126   -5.3388    0.0000 N   0  0  0  0  0  0  0  0  0  0  0  0
    2.0271   -4.9263    0.0000 C   0  0  0  0  0  0  0  0  0  0  0  0
    2.7416   -5.3388    0.0000 C   0  0  0  0  0  0  0  0  0  0  0  0
    3.4561   -4.9263    0.0000 O   0  0  0  0  0  0  0  0  0  0  0  0
    4.1705   -5.3388    0.0000 C   0  0  0  0  0  0  0  0  0  0  0  0
    4.8850   -4.9263    0.0000 C   0  0  0  0  0  0  0  0  0  0  0  0
    5.5995   -5.3388    0.0000 C   0  0  0  0  0  0  0  0  0  0  0  0
    5.5995   -6.1638    0.0000 C   0  0  0  0  0  0  0  0  0  0  0  0
    4.8850   -6.5763    0.0000 C   0  0  0  0  0  0  0  0  0  0  0  0
    4.1705   -6.1638    0.0000 C   0  0  0  0  0  0  0  0  0  0  0  0
    3.4561   -6.5763    0.0000 O   0  0  0  0  0  0  0  0  0  0  0  0
    2.7416   -6.1638    0.0000 C   0  0  0  0  0  0  0  0  0  0  0  0
    7.9566   -5.6143    0.0000 O   0  0  0  0  0  0  0  0  0  0  0  0
  1  2  1  0  0  0  0
  2  3  2  0  0  0  0
  3  4  1  0  0  0  0
  4  5  2  0  0  0  0
  5  6  1  0  0  0  0
  6  7  2  0  0  0  0
  7  8  1  0  0  0  0
  8  9  2  0  0  0  0
  1  9  1  0  0  0  0
  4  9  1  0  0  0  0
  3 10  1  0  0  0  0
 10 11  2  0  0  0  0
 11 12  1  0  0  0  0
 12 13  2  0  0  0  0
  2 13  1  0  0  0  0
 10 14  1  0  0  0  0
 14 15  1  0  0  0  0
 15 16  1  0  0  0  0
 16 17  1  0  0  0  0
 16 18  1  0  0  0  0
 18 19  1  0  0  0  0
 19 20  1  0  0  0  0
 20 21  1  0  0  0  0
 21 22  1  0  0  0  0
 22 23  1  0  0  0  0
 23 24  2  0  0  0  0
 24 25  1  0  0  0  0
 25 26  2  0  0  0  0
 26 27  1  0  0  0  0
 27 28  2  0  0  0  0
 23 28  1  0  0  0  0
 28 29  1  0  0  0  0
 29 30  1  0  0  0  0
 31 32  2  0  0  0  0
 32 33  1  0  0  0  0
 32 34  1  0  0  0  0
 32 35  1  0  0  0  0
 36 37  2  0  0  0  0
 37 38  1  0  0  0  0
 37 39  1  0  0  0  0
 37 40  1  0  0  0  0
 41 42  1  0  0  0  0
 42 43  1  0  0  0  0
 43 44  2  0  0  0  0
 44 45  1  0  0  0  0
 45 46  2  0  0  0  0
 46 47  1  0  0  0  0
 47 48  2  0  0  0  0
 43 48  1  0  0  0  0
 48 49  1  0  0  0  0
 49 50  2  0  0  0  0
 50 51  1  0  0  0  0
 51 52  2  0  0  0  0
 52 53  1  0  0  0  0
 53 54  2  0  0  0  0
 49 54  1  0  0  0  0
 54 55  1  0  0  0  0
 47 55  1  0  0  0  0
 41 56  1  0  0  0  0
 56 57  1  0  0  0  0
 56 58  1  0  0  0  0
 58 59  1  0  0  0  0
 59 60  1  0  0  0  0
 60 61  1  0  0  0  0
 61 62  1  0  0  0  0
 62 63  1  0  0  0  0
 63 64  2  0  0  0  0
 64 65  1  0  0  0  0
 65 66  2  0  0  0  0
 66 67  1  0  0  0  0
 67 68  2  0  0  0  0
 63 68  1  0  0  0  0
 68 69  1  0  0  0  0
 69 70  1  0  0  0  0
M  END
>  <Name>
Carvedilol phosphate

>  <CAS>
610309-89-2

>  <Formula>
C24H26N2O4.H2O.H3O4P

>  <MolWt>
522.49 

>  <Bioactivity>
Carvedilol is a non-selective beta blocker indicated in the treatment of mild to moderate congestive heart failure (CHF). It blocks beta-1 and beta-2 adrenergic receptors as well as the alpha-1 adrenergic receptors.

>  <Pathways>
GPCR/G Protein

>  <Target>
E-selectin inhibitor;VEGF;Potassium Channel inhibitor;DH inhibitor; Adrenergic Receptor antagonist ; Natriuretic peptides B; Gap junction protein;VCAM inhibitor

>  <Receptor>
E-selectin;VEGF;Potassium Channel ; NADH dehydrogenase;Adrenergic receptor; Natriuretic peptides B; Gap junction protein;VCAM1

>  <Reference>
1. Nichols AJ, et al. Fundam Clin Pharmacol. 1991;5(1):25-38. 

$$$$
30484-77-6
  Mrv1561503291623562D          

 34 33  0  0  0  0            999 V2000
    0.4125    0.0000    0.0000 H   0  3  0  0  0  0  0  0  0  0  0  0
    3.5946    0.0000    0.0000 H   0  3  0  0  0  0  0  0  0  0  0  0
   -0.4763   -4.5375    0.0000 C   0  0  0  0  0  0  0  0  0  0  0  0
   -0.4763   -5.3625    0.0000 N   0  0  0  0  0  0  0  0  0  0  0  0
    0.2382   -5.7750    0.0000 C   0  0  0  0  0  0  0  0  0  0  0  0
    0.2382   -6.6000    0.0000 C   0  0  0  0  0  0  0  0  0  0  0  0
   -0.4763   -7.0125    0.0000 N   0  0  0  0  0  0  0  0  0  0  0  0
   -0.4763   -7.8375    0.0000 C   0  0  0  0  0  0  0  0  0  0  0  0
   -1.1908   -8.2500    0.0000 C   0  0  0  0  0  0  0  0  0  0  0  0
   -1.1908   -9.0750    0.0000 C   0  0  0  0  0  0  0  0  0  0  0  0
   -1.9053   -9.4875    0.0000 C   0  0  0  0  0  0  0  0  0  0  0  0
   -2.6197   -9.0750    0.0000 C   0  0  0  0  0  0  0  0  0  0  0  0
   -3.3342   -9.4875    0.0000 F   0  0  0  0  0  0  0  0  0  0  0  0
   -2.6197   -8.2500    0.0000 C   0  0  0  0  0  0  0  0  0  0  0  0
   -1.9053   -7.8375    0.0000 C   0  0  0  0  0  0  0  0  0  0  0  0
    0.2382   -8.2500    0.0000 C   0  0  0  0  0  0  0  0  0  0  0  0
    0.9526   -7.8375    0.0000 C   0  0  0  0  0  0  0  0  0  0  0  0
    1.6671   -8.2500    0.0000 C   0  0  0  0  0  0  0  0  0  0  0  0
    1.6671   -9.0750    0.0000 C   0  0  0  0  0  0  0  0  0  0  0  0
    2.3816   -9.4875    0.0000 F   0  0  0  0  0  0  0  0  0  0  0  0
    0.9526   -9.4875    0.0000 C   0  0  0  0  0  0  0  0  0  0  0  0
    0.2382   -9.0750    0.0000 C   0  0  0  0  0  0  0  0  0  0  0  0
   -1.1908   -6.6000    0.0000 C   0  0  0  0  0  0  0  0  0  0  0  0
   -1.1908   -5.7750    0.0000 C   0  0  0  0  0  0  0  0  0  0  0  0
    0.2382   -4.1250    0.0000 C   0  0  0  0  0  0  0  0  0  0  0  0
    0.2382   -3.3000    0.0000 C   0  0  0  0  0  0  0  0  0  0  0  0
    0.9526   -2.8875    0.0000 C   0  0  0  0  0  0  0  0  0  0  0  0
    0.9526   -2.0625    0.0000 C   0  0  0  0  0  0  0  0  0  0  0  0
    1.6671   -1.6500    0.0000 C   0  0  0  0  0  0  0  0  0  0  0  0
    2.3816   -2.0625    0.0000 C   0  0  0  0  0  0  0  0  0  0  0  0
    2.3816   -2.8875    0.0000 C   0  0  0  0  0  0  0  0  0  0  0  0
    1.6671   -3.3000    0.0000 C   0  0  0  0  0  0  0  0  0  0  0  0
   -0.4125    0.0000    0.0000 Cl  0  5  0  0  0  0  0  0  0  0  0  0
    2.7696    0.0000    0.0000 Cl  0  5  0  0  0  0  0  0  0  0  0  0
  3  4  1  0  0  0  0
  4  5  1  0  0  0  0
  5  6  1  0  0  0  0
  6  7  1  0  0  0  0
  7  8  1  0  0  0  0
  8  9  1  0  0  0  0
  9 10  2  0  0  0  0
 10 11  1  0  0  0  0
 11 12  2  0  0  0  0
 12 13  1  0  0  0  0
 12 14  1  0  0  0  0
 14 15  2  0  0  0  0
  9 15  1  0  0  0  0
  8 16  1  0  0  0  0
 16 17  2  0  0  0  0
 17 18  1  0  0  0  0
 18 19  2  0  0  0  0
 19 20  1  0  0  0  0
 19 21  1  0  0  0  0
 21 22  2  0  0  0  0
 16 22  1  0  0  0  0
  7 23  1  0  0  0  0
 23 24  1  0  0  0  0
  4 24  1  0  0  0  0
  3 25  1  0  0  0  0
 25 26  2  0  0  0  0
 26 27  1  0  0  0  0
 27 28  2  0  0  0  0
 28 29  1  0  0  0  0
 29 30  2  0  0  0  0
 30 31  1  0  0  0  0
 31 32  2  0  0  0  0
 27 32  1  0  0  0  0
M  CHG  4   1   1   2   1  33  -1  34  -1
M  END
>  <Name>
Flunarizine 2HCl

>  <CAS>
30484-77-6

>  <Formula>
C26H28Cl2F2N2

>  <MolWt>
477.42 

>  <Bioactivity>
Flunarizine is a selective calcium entry blocker with calmodulin binding properties and histamine H1 blocking activity. It is effective in the prophylaxis of migraine, occlusive peripheral vascular disease, vertigo of central and peripheral origin, and as an adjuvant in the therapy of epilepsy.

>  <Pathways>
Membrane Transporter/Ion Channel

>  <Target>
Calcium Channel inhibitor;Histamine Receptor antagonist;Calmodulin inhibitor

>  <Receptor>
Calcium Channel;Histamine H1 receptor;Calmodulin

>  <Reference>
1. Uebele VN, et al. Cell Biochem Biophys. 2009;55(2):81-93.

$$$$
126-27-2
  Mrv1561503291623562D          

 34 35  0  0  0  0            999 V2000
    4.2868   -0.0000    0.0000 C   0  0  0  0  0  0  0  0  0  0  0  0
    4.2868    0.8250    0.0000 C   0  0  0  0  0  0  0  0  0  0  0  0
    5.0013    1.2375    0.0000 C   0  0  0  0  0  0  0  0  0  0  0  0
    5.7158    0.8250    0.0000 C   0  0  0  0  0  0  0  0  0  0  0  0
    5.7158   -0.0000    0.0000 C   0  0  0  0  0  0  0  0  0  0  0  0
    5.0013   -0.4125    0.0000 C   0  0  0  0  0  0  0  0  0  0  0  0
    5.0013   -1.2375    0.0000 C   0  0  0  0  0  0  0  0  0  0  0  0
    4.2868   -1.6500    0.0000 C   0  0  0  0  0  0  0  0  0  0  0  0
    3.5724   -2.0625    0.0000 N   0  0  0  0  0  0  0  0  0  0  0  0
    3.5724   -2.8875    0.0000 C   0  0  0  0  0  0  0  0  0  0  0  0
    2.8579   -3.3000    0.0000 C   0  0  0  0  0  0  0  0  0  0  0  0
    2.8579   -4.1250    0.0000 N   0  0  0  0  0  0  0  0  0  0  0  0
    2.1434   -4.5375    0.0000 C   0  0  0  0  0  0  0  0  0  0  0  0
    2.1434   -5.3625    0.0000 C   0  0  0  0  0  0  0  0  0  0  0  0
    1.4289   -5.7750    0.0000 N   0  0  0  0  0  0  0  0  0  0  0  0
    1.4289   -6.6000    0.0000 C   0  0  0  0  0  0  0  0  0  0  0  0
    1.4289   -7.4250    0.0000 C   0  0  0  0  0  0  0  0  0  0  0  0
    0.7145   -7.8375    0.0000 C   0  0  0  0  0  0  0  0  0  0  0  0
    0.7145   -8.6625    0.0000 C   0  0  0  0  0  0  0  0  0  0  0  0
   -0.0000   -9.0750    0.0000 C   0  0  0  0  0  0  0  0  0  0  0  0
   -0.7145   -8.6625    0.0000 C   0  0  0  0  0  0  0  0  0  0  0  0
   -0.7145   -7.8375    0.0000 C   0  0  0  0  0  0  0  0  0  0  0  0
   -0.0000   -7.4250    0.0000 C   0  0  0  0  0  0  0  0  0  0  0  0
    0.6039   -6.6000    0.0000 C   0  0  0  0  0  0  0  0  0  0  0  0
    2.2539   -6.6000    0.0000 C   0  0  0  0  0  0  0  0  0  0  0  0
    0.7145   -5.3625    0.0000 C   0  0  0  0  0  0  0  0  0  0  0  0
    2.8579   -5.7750    0.0000 O   0  0  0  0  0  0  0  0  0  0  0  0
    3.5724   -4.5375    0.0000 C   0  0  0  0  0  0  0  0  0  0  0  0
    4.2868   -4.1250    0.0000 C   0  0  0  0  0  0  0  0  0  0  0  0
    5.0013   -4.5375    0.0000 O   0  0  0  0  0  0  0  0  0  0  0  0
    4.2868   -3.3000    0.0000 O   0  0  0  0  0  0  0  0  0  0  0  0
    2.8579   -1.6500    0.0000 C   0  0  0  0  0  0  0  0  0  0  0  0
    3.8743   -0.9355    0.0000 C   0  0  0  0  0  0  0  0  0  0  0  0
    4.6993   -2.3645    0.0000 C   0  0  0  0  0  0  0  0  0  0  0  0
  1  2  2  0  0  0  0
  2  3  1  0  0  0  0
  3  4  2  0  0  0  0
  4  5  1  0  0  0  0
  5  6  2  0  0  0  0
  1  6  1  0  0  0  0
  6  7  1  0  0  0  0
  7  8  1  0  0  0  0
  8  9  1  0  0  0  0
  9 10  1  0  0  0  0
 10 11  1  0  0  0  0
 11 12  1  0  0  0  0
 12 13  1  0  0  0  0
 13 14  1  0  0  0  0
 14 15  1  0  0  0  0
 15 16  1  0  0  0  0
 16 17  1  0  0  0  0
 17 18  1  0  0  0  0
 18 19  2  0  0  0  0
 19 20  1  0  0  0  0
 20 21  2  0  0  0  0
 21 22  1  0  0  0  0
 22 23  2  0  0  0  0
 18 23  1  0  0  0  0
 16 24  1  0  0  0  0
 16 25  1  0  0  0  0
 15 26  1  0  0  0  0
 14 27  2  0  0  0  0
 12 28  1  0  0  0  0
 28 29  1  0  0  0  0
 29 30  1  0  0  0  0
 10 31  2  0  0  0  0
  9 32  1  0  0  0  0
  8 33  1  0  0  0  0
  8 34  1  0  0  0  0
M  END
>  <Name>
Oxethazaine

>  <CAS>
126-27-2

>  <Formula>
C28H41N3O3

>  <MolWt>
467.64 

>  <Bioactivity>
Has been used in combination with antacids for ulcer pain.

>  <Pathways>
Membrane Transporter/Ion Channel

>  <Target>
Sodium Channel inhibitor

>  <Receptor>
Sodium Channel

>  <Reference>
1. Lee SY, et al. Pharmacol Biochem Behav. 2013 Apr;105:98-104. 

$$$$
980-71-2
  Mrv1561503291623562D          

 27 27  0  0  0  0            999 V2000
   -0.6017    1.3026    0.0000 C   0  0  0  0  0  0  0  0  0  0  0  0
   -0.6017    0.4776    0.0000 C   0  0  0  0  0  0  0  0  0  0  0  0
    0.1128    0.0651    0.0000 C   0  0  0  0  0  0  0  0  0  0  0  0
    0.1128   -0.7599    0.0000 C   0  0  0  0  0  0  0  0  0  0  0  0
    0.8273   -1.1724    0.0000 C   0  0  0  0  0  0  0  0  0  0  0  0
    0.8273   -1.9974    0.0000 C   0  0  0  0  0  0  0  0  0  0  0  0
    0.1128   -2.4099    0.0000 C   0  0  0  0  0  0  0  0  0  0  0  0
   -0.6017   -1.9974    0.0000 C   0  0  0  0  0  0  0  0  0  0  0  0
   -0.6017   -1.1724    0.0000 N   0  0  0  0  0  0  0  0  0  0  0  0
    0.8273    0.4776    0.0000 C   0  0  0  0  0  0  0  0  0  0  0  0
    1.5418    0.0651    0.0000 C   0  0  0  0  0  0  0  0  0  0  0  0
    2.2562    0.4776    0.0000 N   0  0  0  0  0  0  0  0  0  0  0  0
    2.2562    1.3026    0.0000 C   0  0  0  0  0  0  0  0  0  0  0  0
    2.9707    0.0651    0.0000 C   0  0  0  0  0  0  0  0  0  0  0  0
   -1.3161    0.0651    0.0000 C   0  0  0  0  0  0  0  0  0  0  0  0
   -2.0306    0.4776    0.0000 C   0  0  0  0  0  0  0  0  0  0  0  0
   -2.0306    1.3026    0.0000 C   0  0  0  0  0  0  0  0  0  0  0  0
   -1.3161    1.7151    0.0000 C   0  0  0  0  0  0  0  0  0  0  0  0
   -2.7451    1.7151    0.0000 Br  0  0  0  0  0  0  0  0  0  0  0  0
    8.1564   -0.0000    0.0000 O   0  0  0  0  0  0  0  0  0  0  0  0
    7.3314    0.0000    0.0000 C   0  0  0  0  0  0  0  0  0  0  0  0
    6.9189   -0.7145    0.0000 O   0  0  0  0  0  0  0  0  0  0  0  0
    6.9189    0.7145    0.0000 C   0  0  0  0  0  0  0  0  0  0  0  0
    6.0939    0.7145    0.0000 C   0  0  0  0  0  0  0  0  0  0  0  0
    5.6814    0.0000    0.0000 C   0  0  0  0  0  0  0  0  0  0  0  0
    6.0939   -0.7145    0.0000 O   0  0  0  0  0  0  0  0  0  0  0  0
    4.8564    0.0000    0.0000 O   0  0  0  0  0  0  0  0  0  0  0  0
  1  2  2  0  0  0  0
  2  3  1  0  0  0  0
  3  4  1  0  0  0  0
  4  5  2  0  0  0  0
  5  6  1  0  0  0  0
  6  7  2  0  0  0  0
  7  8  1  0  0  0  0
  8  9  2  0  0  0  0
  4  9  1  0  0  0  0
  3 10  1  0  0  0  0
 10 11  1  0  0  0  0
 11 12  1  0  0  0  0
 12 13  1  0  0  0  0
 12 14  1  0  0  0  0
  2 15  1  0  0  0  0
 15 16  2  0  0  0  0
 16 17  1  0  0  0  0
 17 18  2  0  0  0  0
  1 18  1  0  0  0  0
 17 19  1  0  0  0  0
 20 21  2  0  0  0  0
 21 22  1  0  0  0  0
 21 23  1  0  0  0  0
 23 24  2  0  0  0  0
 24 25  1  0  0  0  0
 25 26  2  0  0  0  0
 25 27  1  0  0  0  0
M  END
>  <Name>
Brompheniramine hydrogen maleate

>  <CAS>
980-71-2

>  <Formula>
C16H19BrN2.C4H4

>  <MolWt>
435.31 

>  <Bioactivity>
Brompheniramine hydrogen maleate is a histamine H1 receptors antagonist.

>  <Pathways>
Neuroscience

>  <Target>
Histamine Receptor antagonist

>  <Receptor>
Histamine receptor

>  <Reference>
1. Tardioli S, et al. J Phys Chem B. 2012 Jun 21;116(24):7033-9. 

$$$$
T0788
  Mrv1561503291623562D          

 27 25  0  0  1  0            999 V2000
   -0.3728    0.2511    0.0000 C   0  0  0  0  0  0  0  0  0  0  0  0
    0.3417    0.6636    0.0000 O   0  0  0  0  0  0  0  0  0  0  0  0
    1.0562    0.2511    0.0000 C   0  0  0  0  0  0  0  0  0  0  0  0
    1.0562    1.0761    0.0000 O   0  0  0  0  0  0  0  0  0  0  0  0
    1.0562   -0.5739    0.0000 C   0  0  0  0  0  0  0  0  0  0  0  0
    0.3417   -0.9864    0.0000 O   0  0  0  0  0  0  0  0  0  0  0  0
   -0.3728   -0.5739    0.0000 C   0  0  0  0  0  0  0  0  0  0  0  0
   -1.0872   -0.9864    0.0000 C   0  0  0  0  0  0  0  0  0  0  0  0
   -1.0872   -1.8114    0.0000 O   0  0  0  0  0  0  0  0  0  0  0  0
   -1.8017   -0.5739    0.0000 C   0  0  0  0  0  0  0  0  0  0  0  0
   -2.5162   -0.9864    0.0000 N   0  0  0  0  0  0  0  0  0  0  0  0
   -3.2307   -0.5739    0.0000 C   0  0  0  0  0  0  0  0  0  0  0  0
   -1.8017    0.2511    0.0000 C   0  0  0  0  0  0  0  0  0  0  0  0
   -2.5162    0.6636    0.0000 O   0  0  0  0  0  0  0  0  0  0  0  0
   -1.0872    0.6636    0.0000 C   0  0  0  0  0  0  0  0  0  0  0  0
   -1.0872    1.4886    0.0000 N   0  0  0  0  0  0  0  0  0  0  0  0
   -0.3728    1.9011    0.0000 C   0  0  0  0  0  0  0  0  0  0  0  0
    1.7706   -0.9864    0.0000 O   0  0  0  0  0  0  0  0  0  0  0  0
    2.4851   -0.5739    0.0000 C   0  0  0  0  0  0  0  0  0  0  0  0
    2.4851    0.2511    0.0000 C   0  0  0  0  0  0  0  0  0  0  0  0
    1.7706    0.6636    0.0000 C   0  0  0  0  0  0  0  0  0  0  0  0
    1.7706    1.4886    0.0000 O   0  0  0  0  0  0  0  0  0  0  0  0
    3.1996   -0.9864    0.0000 C   0  0  0  0  0  0  0  0  0  0  0  0
    6.3817    0.0000    0.0000 H   0  3  0  0  0  0  0  0  0  0  0  0
    0.4125   -3.4614    0.0000 H   0  3  0  0  0  0  0  0  0  0  0  0
    5.5567    0.0000    0.0000 Cl  0  5  0  0  0  0  0  0  0  0  0  0
   -0.4125   -3.4614    0.0000 Cl  0  5  0  0  0  0  0  0  0  0  0  0
  1  2  1  0  0  0  0
  2  3  1  0  0  0  0
  3  4  1  0  0  0  0
  3  5  1  0  0  0  0
  5  6  1  0  0  0  0
  6  7  1  0  0  0  0
  1  7  1  0  0  0  0
  7  8  1  0  0  0  0
  8  9  1  0  0  0  0
  8 10  1  0  0  0  0
 10 11  1  0  0  0  0
 11 12  1  0  0  0  0
 10 13  1  0  0  0  0
 13 14  1  0  0  0  0
 13 15  1  0  0  0  0
  1 15  1  0  0  0  0
 15 16  1  0  0  0  0
 16 17  1  0  0  0  0
  5 18  1  0  0  0  0
 18 19  1  0  0  0  0
 19 20  1  0  0  0  0
 20 21  1  0  0  0  0
  3 21  1  0  0  0  0
 21 22  2  0  0  0  0
 19 23  1  0  0  0  0
M  CHG  4  24   1  25   1  26  -1  27  -1
M  END
>  <Name>
Spectinomycin HCl

>  <CAS>
21736-83-4

>  <Formula>
C14H26CL2N2O7

>  <MolWt>
405.27 

>  <Bioactivity>
An antibiotic produced by Streptomyces spectabilis. It is active against gram-negative bacteria and used for the treatment of gonorrhea.

>  <Pathways>
Microbiology & Virology

>  <Target>
Antibiotic

>  <Receptor>
30S ribosomal protein

>  <Reference>
1. Gordeev VK, et al. Genetika. 1983, 19(2):217-20. 

$$$$
82159-09-9
  Mrv1561503291623562D          

 21 22  0  0  0  0            999 V2000
   -4.8946    4.3527    0.0000 C   0  0  0  0  0  0  0  0  0  0  0  0
   -4.8946    3.5277    0.0000 C   0  0  0  0  0  0  0  0  0  0  0  0
   -4.1801    3.1152    0.0000 C   0  0  0  0  0  0  0  0  0  0  0  0
   -4.1801    2.2902    0.0000 C   0  0  0  0  0  0  0  0  0  0  0  0
   -3.4656    1.8777    0.0000 C   0  0  0  0  0  0  0  0  0  0  0  0
   -3.4656    1.0527    0.0000 C   0  0  0  0  0  0  0  0  0  0  0  0
   -2.7982    0.5678    0.0000 C   0  0  0  0  0  0  0  0  0  0  0  0
   -3.0531   -0.2169    0.0000 N   0  0  0  0  0  0  0  0  0  0  0  0
   -2.5682   -0.8843    0.0000 C   0  0  0  0  0  0  0  0  0  0  0  0
   -2.9038   -1.6380    0.0000 C   0  0  0  0  0  0  0  0  0  0  0  0
   -2.4189   -2.3054    0.0000 O   0  0  0  0  0  0  0  0  0  0  0  0
   -3.7243   -1.7242    0.0000 O   0  0  0  0  0  0  0  0  0  0  0  0
   -3.8781   -0.2169    0.0000 C   0  0  0  0  0  0  0  0  0  0  0  0
   -4.1331    0.5678    0.0000 S   0  0  0  0  0  0  0  0  0  0  0  0
   -4.3631   -0.8843    0.0000 S   0  0  0  0  0  0  0  0  0  0  0  0
   -2.0136    0.8227    0.0000 O   0  0  0  0  0  0  0  0  0  0  0  0
   -4.8946    1.8777    0.0000 C   0  0  0  0  0  0  0  0  0  0  0  0
   -5.6091    3.1152    0.0000 C   0  0  0  0  0  0  0  0  0  0  0  0
   -6.3235    3.5277    0.0000 C   0  0  0  0  0  0  0  0  0  0  0  0
   -6.3235    4.3527    0.0000 C   0  0  0  0  0  0  0  0  0  0  0  0
   -5.6091    4.7652    0.0000 C   0  0  0  0  0  0  0  0  0  0  0  0
  1  2  2  0  0  0  0
  2  3  1  0  0  0  0
  3  4  2  0  0  0  0
  4  5  1  0  0  0  0
  5  6  2  0  0  0  0
  6  7  1  0  0  0  0
  7  8  1  0  0  0  0
  8  9  1  0  0  0  0
  9 10  1  0  0  0  0
 10 11  1  0  0  0  0
 10 12  2  0  0  0  0
  8 13  1  0  0  0  0
 13 14  1  0  0  0  0
  6 14  1  0  0  0  0
 13 15  2  0  0  0  0
  7 16  2  0  0  0  0
  4 17  1  0  0  0  0
  2 18  1  0  0  0  0
 18 19  2  0  0  0  0
 19 20  1  0  0  0  0
 20 21  2  0  0  0  0
  1 21  1  0  0  0  0
M  END
>  <Name>
Epalrestat

>  <CAS>
82159-09-9

>  <Formula>
C15H13NO3S2

>  <MolWt>
319.39 

>  <Bioactivity>
Epalrestat is an aldose reductase inhibitor. Long-term treatment with epalrestat is well tolerated and can effectively delay the progression of diabetic neuropathy and ameliorate the associated symptoms of the disease, particularly in subjects with good glycemic control and limited microangiopathy.[1]

>  <Pathways>
Enzyme

>  <Target>
Reductase inhibitor

>  <Receptor>
Aldose reductase

>  <Reference>
1. Ramirez MA, et al. Pharmacotherapy. 2008 May; 28(5):646-55.

$$$$
521-78-8
  Mrv1561503291623562D          

 30 31  0  0  0  0            999 V2000
    1.6500   -0.0000    0.0000 O   0  0  0  0  0  0  0  0  0  0  0  0
    0.8250    0.0000    0.0000 C   0  0  0  0  0  0  0  0  0  0  0  0
    0.4125   -0.7145    0.0000 O   0  0  0  0  0  0  0  0  0  0  0  0
    0.4125    0.7145    0.0000 C   0  0  0  0  0  0  0  0  0  0  0  0
   -0.4125    0.7145    0.0000 C   0  0  0  0  0  0  0  0  0  0  0  0
   -0.8250    0.0000    0.0000 C   0  0  0  0  0  0  0  0  0  0  0  0
   -0.4125   -0.7145    0.0000 O   0  0  0  0  0  0  0  0  0  0  0  0
   -1.6500    0.0000    0.0000 O   0  0  0  0  0  0  0  0  0  0  0  0
    5.2805    1.5339    0.0000 C   0  0  0  0  0  0  0  0  0  0  0  0
    4.6757    2.0950    0.0000 C   0  0  0  0  0  0  0  0  0  0  0  0
    3.8874    1.8519    0.0000 C   0  0  0  0  0  0  0  0  0  0  0  0
    3.7038    1.0476    0.0000 C   0  0  0  0  0  0  0  0  0  0  0  0
    4.3085    0.4864    0.0000 C   0  0  0  0  0  0  0  0  0  0  0  0
    5.0969    0.7296    0.0000 C   0  0  0  0  0  0  0  0  0  0  0  0
    5.7785    0.2648    0.0000 N   0  0  0  0  0  0  0  0  0  0  0  0
    5.8402   -0.5579    0.0000 C   0  0  0  0  0  0  0  0  0  0  0  0
    5.2354   -1.1190    0.0000 C   0  0  0  0  0  0  0  0  0  0  0  0
    4.4196   -0.9960    0.0000 C   0  0  0  0  0  0  0  0  0  0  0  0
    4.0071   -0.2816    0.0000 C   0  0  0  0  0  0  0  0  0  0  0  0
    5.4190   -1.9233    0.0000 C   0  0  0  0  0  0  0  0  0  0  0  0
    6.2074   -2.1665    0.0000 C   0  0  0  0  0  0  0  0  0  0  0  0
    6.8121   -1.6053    0.0000 C   0  0  0  0  0  0  0  0  0  0  0  0
    6.6285   -0.8010    0.0000 C   0  0  0  0  0  0  0  0  0  0  0  0
    6.4930    0.6773    0.0000 C   0  0  0  0  0  0  0  0  0  0  0  0
    7.2075    0.2648    0.0000 C   0  0  0  0  0  0  0  0  0  0  0  0
    7.9220    0.6773    0.0000 C   0  0  0  0  0  0  0  0  0  0  0  0
    8.6364    0.2648    0.0000 N   0  0  0  0  0  0  0  0  0  0  0  0
    9.3509    0.6773    0.0000 C   0  0  0  0  0  0  0  0  0  0  0  0
    8.6364   -0.5602    0.0000 C   0  0  0  0  0  0  0  0  0  0  0  0
    7.2075   -0.5602    0.0000 C   0  0  0  0  0  0  0  0  0  0  0  0
  1  2  2  0  0  0  0
  2  3  1  0  0  0  0
  2  4  1  0  0  0  0
  4  5  2  0  0  0  0
  5  6  1  0  0  0  0
  6  7  2  0  0  0  0
  6  8  1  0  0  0  0
  9 10  2  0  0  0  0
 10 11  1  0  0  0  0
 11 12  2  0  0  0  0
 12 13  1  0  0  0  0
 13 14  2  0  0  0  0
  9 14  1  0  0  0  0
 14 15  1  0  0  0  0
 15 16  1  0  0  0  0
 16 17  2  0  0  0  0
 17 18  1  0  0  0  0
 18 19  1  0  0  0  0
 13 19  1  0  0  0  0
 17 20  1  0  0  0  0
 20 21  2  0  0  0  0
 21 22  1  0  0  0  0
 22 23  2  0  0  0  0
 16 23  1  0  0  0  0
 15 24  1  0  0  0  0
 24 25  1  0  0  0  0
 25 26  1  0  0  0  0
 26 27  1  0  0  0  0
 27 28  1  0  0  0  0
 27 29  1  0  0  0  0
 25 30  1  0  0  0  0
M  END
>  <Name>
Trimipramine maleate

>  <CAS>
521-78-8

>  <Formula>
C24H30N2O4

>  <MolWt>
410.51 

>  <Bioactivity>
Tricyclic antidepressant similar to IMIPRAMINE, but with more antihistaminic and sedative properties.


>  <Pathways>
Neuroscience

>  <Target>
Histamine Receptor antagonist;Dopamine Receptor antagonist;Adrenergic Receptor antagonist ;5-HT receptor antagonist;Dopamine uptake inhibitor

>  <Receptor>
Histamine H1 receptor;Sodium-dependent noradrenaline transporter;Sodium-dependent serotonin transporter;Dopamine receptor ;Adrenergic receptor ;5-HT receptor ;Sodium-dependent dopamine transporter

>  <Reference>
1. Diamond M, et al. Eur Neuropsychopharmacol. 2006 Oct;16(7):481-90. 

$$$$
3717-88-2
  Mrv1561503291623562D          

 31 32  0  0  0  0            999 V2000
    0.4125    0.0000    0.0000 H   0  3  0  0  0  0  0  0  0  0  0  0
    4.9131   -2.4323    0.0000 C   0  0  0  0  0  0  0  0  0  0  0  0
    5.6275   -2.0198    0.0000 C   0  0  0  0  0  0  0  0  0  0  0  0
    5.6275   -1.1948    0.0000 C   0  0  0  0  0  0  0  0  0  0  0  0
    4.9131   -0.7823    0.0000 C   0  0  0  0  0  0  0  0  0  0  0  0
    4.9131    0.0427    0.0000 C   0  0  0  0  0  0  0  0  0  0  0  0
    4.1986    0.4552    0.0000 O   0  0  0  0  0  0  0  0  0  0  0  0
    4.1986    1.2802    0.0000 C   0  0  0  0  0  0  0  0  0  0  0  0
    3.4841    1.6927    0.0000 C   0  0  0  0  0  0  0  0  0  0  0  0
    3.4841    2.5177    0.0000 N   0  0  0  0  0  0  0  0  0  0  0  0
    2.7696    2.9302    0.0000 C   0  0  0  0  0  0  0  0  0  0  0  0
    2.7696    3.7552    0.0000 C   0  0  0  0  0  0  0  0  0  0  0  0
    3.4841    4.1677    0.0000 C   0  0  0  0  0  0  0  0  0  0  0  0
    4.1986    3.7552    0.0000 C   0  0  0  0  0  0  0  0  0  0  0  0
    4.1986    2.9302    0.0000 C   0  0  0  0  0  0  0  0  0  0  0  0
    5.6275    0.4552    0.0000 O   0  0  0  0  0  0  0  0  0  0  0  0
    4.1986   -1.1948    0.0000 C   0  0  0  0  0  0  0  0  0  0  0  0
    4.1986   -2.0198    0.0000 C   0  0  0  0  0  0  0  0  0  0  0  0
    6.3420   -0.7823    0.0000 O   0  0  0  0  0  0  0  0  0  0  0  0
    7.0565   -1.1948    0.0000 C   0  0  0  0  0  0  0  0  0  0  0  0
    7.0565   -2.0198    0.0000 C   0  0  0  0  0  0  0  0  0  0  0  0
    6.3420   -2.4323    0.0000 C   0  0  0  0  0  0  0  0  0  0  0  0
    6.3420   -3.2573    0.0000 O   0  0  0  0  0  0  0  0  0  0  0  0
    7.7709   -2.4323    0.0000 C   0  0  0  0  0  0  0  0  0  0  0  0
    7.7709   -0.7823    0.0000 C   0  0  0  0  0  0  0  0  0  0  0  0
    7.7709    0.0427    0.0000 C   0  0  0  0  0  0  0  0  0  0  0  0
    8.4854    0.4552    0.0000 C   0  0  0  0  0  0  0  0  0  0  0  0
    9.1999    0.0427    0.0000 C   0  0  0  0  0  0  0  0  0  0  0  0
    9.1999   -0.7823    0.0000 C   0  0  0  0  0  0  0  0  0  0  0  0
    8.4854   -1.1948    0.0000 C   0  0  0  0  0  0  0  0  0  0  0  0
   -0.4125    0.0000    0.0000 Cl  0  5  0  0  0  0  0  0  0  0  0  0
  2  3  2  0  0  0  0
  3  4  1  0  0  0  0
  4  5  2  0  0  0  0
  5  6  1  0  0  0  0
  6  7  1  0  0  0  0
  7  8  1  0  0  0  0
  8  9  1  0  0  0  0
  9 10  1  0  0  0  0
 10 11  1  0  0  0  0
 11 12  1  0  0  0  0
 12 13  1  0  0  0  0
 13 14  1  0  0  0  0
 14 15  1  0  0  0  0
 10 15  1  0  0  0  0
  6 16  2  0  0  0  0
  5 17  1  0  0  0  0
 17 18  2  0  0  0  0
  2 18  1  0  0  0  0
  4 19  1  0  0  0  0
 19 20  1  0  0  0  0
 20 21  2  0  0  0  0
 21 22  1  0  0  0  0
  3 22  1  0  0  0  0
 22 23  2  0  0  0  0
 21 24  1  0  0  0  0
 20 25  1  0  0  0  0
 25 26  2  0  0  0  0
 26 27  1  0  0  0  0
 27 28  2  0  0  0  0
 28 29  1  0  0  0  0
 29 30  2  0  0  0  0
 25 30  1  0  0  0  0
M  CHG  2   1   1  31  -1
M  END
>  <Name>
Flavoxate HCl

>  <CAS>
3717-88-2

>  <Formula>
C24H26ClNO4

>  <MolWt>
427.92 

>  <Bioactivity>
A drug that has been used in various urinary syndromes and as an antispasmodic. Its therapeutic usefulness and its mechanism of action are not clear. It may have local anesthetic activity and direct relaxing effects on smooth muscle as well as some activity as a muscarinic antagonist.  

>  <Pathways>
Neuroscience

>  <Target>
AChR antagonist

>  <Receptor>
Muscarinic AChR

>  <Reference>
1. Dansette PM, et al. Exp Toxicol Pathol, 2000, 52(2), 145-148.

$$$$
54965-24-1
  Mrv1561503291623562D          

 41 42  0  0  0  0            999 V2000
    0.6284   -0.5898    0.0000 C   0  0  0  0  0  0  0  0  0  0  0  0
    0.2159    0.1246    0.0000 C   0  0  0  0  0  0  0  0  0  0  0  0
   -0.4986   -0.2879    0.0000 O   0  0  0  0  0  0  0  0  0  0  0  0
    0.9304    0.5371    0.0000 C   0  0  0  0  0  0  0  0  0  0  0  0
    1.6448    0.1246    0.0000 O   0  0  0  0  0  0  0  0  0  0  0  0
    0.9304    1.3621    0.0000 O   0  0  0  0  0  0  0  0  0  0  0  0
   -0.1966    0.8391    0.0000 C   0  0  0  0  0  0  0  0  0  0  0  0
   -1.0216    0.8391    0.0000 C   0  0  0  0  0  0  0  0  0  0  0  0
   -1.4341    0.1246    0.0000 O   0  0  0  0  0  0  0  0  0  0  0  0
   -1.4341    1.5536    0.0000 O   0  0  0  0  0  0  0  0  0  0  0  0
    0.2159   -1.3043    0.0000 C   0  0  0  0  0  0  0  0  0  0  0  0
    0.6284   -2.0188    0.0000 O   0  0  0  0  0  0  0  0  0  0  0  0
   -0.6091   -1.3043    0.0000 O   0  0  0  0  0  0  0  0  0  0  0  0
    7.5743   -0.5746    0.0000 C   0  0  0  0  0  0  0  0  0  0  0  0
    6.8599   -0.1621    0.0000 C   0  0  0  0  0  0  0  0  0  0  0  0
    6.1454   -0.5746    0.0000 C   0  0  0  0  0  0  0  0  0  0  0  0
    5.4309   -0.1621    0.0000 C   0  0  0  0  0  0  0  0  0  0  0  0
    5.4309    0.6629    0.0000 C   0  0  0  0  0  0  0  0  0  0  0  0
    4.7164    1.0754    0.0000 C   0  0  0  0  0  0  0  0  0  0  0  0
    4.7164    1.9004    0.0000 C   0  0  0  0  0  0  0  0  0  0  0  0
    5.4309    2.3129    0.0000 C   0  0  0  0  0  0  0  0  0  0  0  0
    6.1454    1.9004    0.0000 C   0  0  0  0  0  0  0  0  0  0  0  0
    6.1454    1.0754    0.0000 C   0  0  0  0  0  0  0  0  0  0  0  0
    4.7164   -0.5746    0.0000 C   0  0  0  0  0  0  0  0  0  0  0  0
    4.0020   -0.1621    0.0000 C   0  0  0  0  0  0  0  0  0  0  0  0
    6.1454   -1.3996    0.0000 C   0  0  0  0  0  0  0  0  0  0  0  0
    6.8599   -1.8121    0.0000 C   0  0  0  0  0  0  0  0  0  0  0  0
    6.8599   -2.6371    0.0000 C   0  0  0  0  0  0  0  0  0  0  0  0
    6.1454   -3.0496    0.0000 C   0  0  0  0  0  0  0  0  0  0  0  0
    5.4309   -2.6371    0.0000 C   0  0  0  0  0  0  0  0  0  0  0  0
    5.4309   -1.8121    0.0000 C   0  0  0  0  0  0  0  0  0  0  0  0
    6.8599    0.6629    0.0000 C   0  0  0  0  0  0  0  0  0  0  0  0
    7.5743    1.0754    0.0000 C   0  0  0  0  0  0  0  0  0  0  0  0
    8.2888    0.6629    0.0000 C   0  0  0  0  0  0  0  0  0  0  0  0
    8.2888   -0.1621    0.0000 C   0  0  0  0  0  0  0  0  0  0  0  0
    9.0033    1.0754    0.0000 O   0  0  0  0  0  0  0  0  0  0  0  0
    9.7177    0.6629    0.0000 C   0  0  0  0  0  0  0  0  0  0  0  0
   10.4322    1.0754    0.0000 C   0  0  0  0  0  0  0  0  0  0  0  0
   11.1467    0.6629    0.0000 N   0  0  0  0  0  0  0  0  0  0  0  0
   11.8612    1.0754    0.0000 C   0  0  0  0  0  0  0  0  0  0  0  0
   11.1467   -0.1621    0.0000 C   0  0  0  0  0  0  0  0  0  0  0  0
  1  2  1  0  0  0  0
  2  3  1  0  0  0  0
  2  4  1  0  0  0  0
  4  5  2  0  0  0  0
  4  6  1  0  0  0  0
  2  7  1  0  0  0  0
  7  8  1  0  0  0  0
  8  9  2  0  0  0  0
  8 10  1  0  0  0  0
  1 11  1  0  0  0  0
 11 12  2  0  0  0  0
 11 13  1  0  0  0  0
 14 15  2  0  0  0  0
 15 16  1  0  0  0  0
 16 17  2  0  0  0  0
 17 18  1  0  0  0  0
 18 19  2  0  0  0  0
 19 20  1  0  0  0  0
 20 21  2  0  0  0  0
 21 22  1  0  0  0  0
 22 23  2  0  0  0  0
 18 23  1  0  0  0  0
 17 24  1  0  0  0  0
 24 25  1  0  0  0  0
 16 26  1  0  0  0  0
 26 27  2  0  0  0  0
 27 28  1  0  0  0  0
 28 29  2  0  0  0  0
 29 30  1  0  0  0  0
 30 31  2  0  0  0  0
 26 31  1  0  0  0  0
 15 32  1  0  0  0  0
 32 33  2  0  0  0  0
 33 34  1  0  0  0  0
 34 35  2  0  0  0  0
 14 35  1  0  0  0  0
 34 36  1  0  0  0  0
 36 37  1  0  0  0  0
 37 38  1  0  0  0  0
 38 39  1  0  0  0  0
 39 40  1  0  0  0  0
 39 41  1  0  0  0  0
M  END
>  <Name>
Tamoxifen citrate

>  <CAS>
54965-24-1

>  <Formula>
C32H37NO8

>  <MolWt>
563.65 

>  <Bioactivity>
One of the selective estrogen receptor modulators (SERM) with tissue-specific activities for the treatment and prevention of estrogen receptor positive breast cancer. Tamoxifen acts as an anti-estrogen (inhibiting agent) in the mammary tissue, but as an estrogen (stimulating agent) in cholesterol metabolism, bone density, and cell proliferation in the endometrium. 

>  <Pathways>
Endocrinology/ Hormones

>  <Target>
Estrogen/Progestogen Receptor agonist

>  <Receptor>
Estrogen/progestogen Receptor

>  <Reference>
1. Sasson S. Pathol Biol (Paris). 1991, 39(1):59-69. 

$$$$
T0919
  Mrv1561503291623562D          

 27 26  0  0  0  0            999 V2000
    0.4125    0.0000    0.0000 H   0  3  0  0  0  0  0  0  0  0  0  0
    3.7272   -0.3465    0.0000 C   0  0  0  0  0  0  0  0  0  0  0  0
    3.0127   -0.7590    0.0000 C   0  0  0  0  0  0  0  0  0  0  0  0
    3.0127   -1.5840    0.0000 C   0  0  0  0  0  0  0  0  0  0  0  0
    3.0127   -2.4090    0.0000 F   0  0  0  0  0  0  0  0  0  0  0  0
    3.8377   -1.5840    0.0000 F   0  0  0  0  0  0  0  0  0  0  0  0
    2.1877   -1.5840    0.0000 F   0  0  0  0  0  0  0  0  0  0  0  0
    2.2982   -0.3465    0.0000 C   0  0  0  0  0  0  0  0  0  0  0  0
    2.2982    0.4785    0.0000 C   0  0  0  0  0  0  0  0  0  0  0  0
    3.0127    0.8910    0.0000 C   0  0  0  0  0  0  0  0  0  0  0  0
    3.7272    0.4785    0.0000 C   0  0  0  0  0  0  0  0  0  0  0  0
    4.4416    0.8910    0.0000 C   0  0  0  0  0  0  0  0  0  0  0  0
    5.1561    0.4785    0.0000 C   0  0  0  0  0  0  0  0  0  0  0  0
    5.8706    0.8910    0.0000 N   0  0  0  0  0  0  0  0  0  0  0  0
    6.5850    0.4785    0.0000 C   0  0  0  0  0  0  0  0  0  0  0  0
    7.2995    0.8910    0.0000 C   0  0  0  0  0  0  0  0  0  0  0  0
    8.0140    0.4785    0.0000 O   0  0  0  0  0  0  0  0  0  0  0  0
    8.7285    0.8910    0.0000 C   0  0  0  0  0  0  0  0  0  0  0  0
    8.7285    1.7160    0.0000 O   0  0  0  0  0  0  0  0  0  0  0  0
    9.4429    0.4785    0.0000 C   0  0  0  0  0  0  0  0  0  0  0  0
   10.1574    0.8910    0.0000 C   0  0  0  0  0  0  0  0  0  0  0  0
   10.8719    0.4785    0.0000 C   0  0  0  0  0  0  0  0  0  0  0  0
   10.8719   -0.3465    0.0000 C   0  0  0  0  0  0  0  0  0  0  0  0
   10.1574   -0.7590    0.0000 C   0  0  0  0  0  0  0  0  0  0  0  0
    9.4429   -0.3465    0.0000 C   0  0  0  0  0  0  0  0  0  0  0  0
    5.1561   -0.3465    0.0000 C   0  0  0  0  0  0  0  0  0  0  0  0
   -0.4125    0.0000    0.0000 Cl  0  5  0  0  0  0  0  0  0  0  0  0
  2  3  2  0  0  0  0
  3  4  1  0  0  0  0
  4  5  1  0  0  0  0
  4  6  1  0  0  0  0
  4  7  1  0  0  0  0
  3  8  1  0  0  0  0
  8  9  2  0  0  0  0
  9 10  1  0  0  0  0
 10 11  2  0  0  0  0
  2 11  1  0  0  0  0
 11 12  1  0  0  0  0
 12 13  1  0  0  0  0
 13 14  1  0  0  0  0
 14 15  1  0  0  0  0
 15 16  1  0  0  0  0
 16 17  1  0  0  0  0
 17 18  1  0  0  0  0
 18 19  2  0  0  0  0
 18 20  1  0  0  0  0
 20 21  2  0  0  0  0
 21 22  1  0  0  0  0
 22 23  2  0  0  0  0
 23 24  1  0  0  0  0
 24 25  2  0  0  0  0
 20 25  1  0  0  0  0
 13 26  1  0  0  0  0
M  CHG  2   1   1  27  -1
M  END
>  <Name>
BenfluoreX HCl

>  <CAS>
23642-66-2

>  <Formula>
C19H21ClF3NO2

>  <MolWt>
387.82 

>  <Bioactivity>
Benfluorex is an anorectic and hypolipidemic agent that is structurally related to fenfluramine. It was patented and manufactured by a French pharmaceutical company Servier. On 18 December 2009, the European Medicines Agency (EMEA) recommended the withdrawal of all medicines containing benfluorex in the European Union, because their risks, particularly the risk of heart valve disease (fenfluramine-like cardiovascular side-effects), are greater than their benefits.

>  <Pathways>
Immunology/Inflammation

>  <Target>
HNF activator

>  <Receptor>
HNF4?

>  <Reference>
1. Lee SH, et al. ACS Chem Biol. 2013 Aug 16;8(8):1730-6. 

$$$$
T0868
  Mrv1561503291623562D          

 36 35  0  0  1  0            999 V2000
    0.5042    0.1913    0.0000 C   0  0  0  0  0  0  0  0  0  0  0  0
    1.2187    0.6038    0.0000 S   0  0  0  0  0  0  0  0  0  0  0  0
    1.9332    0.1913    0.0000 C   0  0  0  0  0  0  0  0  0  0  0  0
    1.9332   -0.6337    0.0000 C   0  0  0  0  0  0  0  0  0  0  0  0
    1.2187   -1.0462    0.0000 C   0  0  0  0  0  0  0  0  0  0  0  0
    0.5042   -0.6337    0.0000 N   0  0  0  0  0  0  0  0  0  0  0  0
   -0.3208   -0.6337    0.0000 C   0  0  0  0  0  0  0  0  0  0  0  0
   -0.9042   -1.2171    0.0000 O   0  0  0  0  0  0  0  0  0  0  0  0
   -0.3208    0.1913    0.0000 C   0  0  0  0  0  0  0  0  0  0  0  0
   -0.9042    0.7747    0.0000 N   0  0  0  0  0  0  0  0  0  0  0  0
   -1.7010    0.5611    0.0000 C   0  0  0  0  0  0  0  0  0  0  0  0
   -1.9146   -0.2358    0.0000 O   0  0  0  0  0  0  0  0  0  0  0  0
   -2.2844    1.1445    0.0000 C   0  0  0  0  0  0  0  0  0  0  0  0
   -2.0709    1.9414    0.0000 N   0  0  0  0  0  0  0  0  0  0  0  0
   -1.2740    2.1549    0.0000 O   0  0  0  0  0  0  0  0  0  0  0  0
   -1.0605    2.9518    0.0000 C   0  0  0  0  0  0  0  0  0  0  0  0
   -3.0813    0.9310    0.0000 C   0  0  0  0  0  0  0  0  0  0  0  0
   -3.3769    0.1608    0.0000 C   0  0  0  0  0  0  0  0  0  0  0  0
   -4.2008    0.2039    0.0000 S   0  0  0  0  0  0  0  0  0  0  0  0
   -4.4143    1.0008    0.0000 C   0  0  0  0  0  0  0  0  0  0  0  0
   -3.7224    1.4502    0.0000 N   0  0  0  0  0  0  0  0  0  0  0  0
   -5.1845    1.2965    0.0000 N   0  0  0  0  0  0  0  0  0  0  0  0
    1.2187   -1.8712    0.0000 C   0  0  0  0  0  0  0  0  0  0  0  0
    0.5042   -2.2837    0.0000 O   0  0  0  0  0  0  0  0  0  0  0  0
    1.9332   -2.2837    0.0000 O   0  0  0  0  0  0  0  0  0  0  0  0
    2.6476   -1.0462    0.0000 C   0  0  0  0  0  0  0  0  0  0  0  0
    3.3621   -0.6337    0.0000 N   0  3  0  0  0  0  0  0  0  0  0  0
    3.9752   -0.0817    0.0000 C   0  0  0  0  0  0  0  0  0  0  0  0
    4.6897   -0.4942    0.0000 C   0  0  0  0  0  0  0  0  0  0  0  0
    4.5181   -1.3011    0.0000 C   0  0  0  0  0  0  0  0  0  0  0  0
    3.6977   -1.3874    0.0000 C   0  0  0  0  0  0  0  0  0  0  0  0
    2.8772    0.0337    0.0000 C   0  0  0  0  0  0  0  0  0  0  0  0
    7.8718    0.0000    0.0000 H   0  3  0  0  0  0  0  0  0  0  0  0
    7.0468    0.0000    0.0000 Cl  0  5  0  0  0  0  0  0  0  0  0  0
    0.0000   -3.9337    0.0000 Cl  0  5  0  0  0  0  0  0  0  0  0  0
    2.3571   -3.9337    0.0000 O   0  0  0  0  0  0  0  0  0  0  0  0
  1  2  1  0  0  0  0
  2  3  1  0  0  0  0
  3  4  1  0  0  0  0
  4  5  2  0  0  0  0
  5  6  1  0  0  0  0
  1  6  1  0  0  0  0
  6  7  1  0  0  0  0
  7  8  2  0  0  0  0
  7  9  1  0  0  0  0
  1  9  1  0  0  0  0
  9 10  1  0  0  0  0
 10 11  1  0  0  0  0
 11 12  2  0  0  0  0
 11 13  1  0  0  0  0
 13 14  2  0  0  0  0
 14 15  1  0  0  0  0
 15 16  1  0  0  0  0
 13 17  1  0  0  0  0
 17 18  2  0  0  0  0
 18 19  1  0  0  0  0
 19 20  1  0  0  0  0
 20 21  2  0  0  0  0
 17 21  1  0  0  0  0
 20 22  1  0  0  0  0
  5 23  1  0  0  0  0
 23 24  1  0  0  0  0
 23 25  2  0  0  0  0
  4 26  1  0  0  0  0
 26 27  1  0  0  0  0
 27 28  1  0  0  0  0
 28 29  1  0  0  0  0
 29 30  1  0  0  0  0
 30 31  1  0  0  0  0
 27 31  1  0  0  0  0
 27 32  1  0  0  0  0
M  CHG  4  27   1  33   1  34  -1  35  -1
M  END
>  <Name>
Cefepime HCl

>  <CAS>
123171-59-5

>  <Formula>
C19H24N6O5S2.2HCl.H2O

>  <MolWt>
571.50 

>  <Bioactivity>
Cefepime is a fourth-generation cephalosporin antibiotic developed in 1994. Cefepime has an extended spectrum of activity against Gram-positive and Gram-negative bacteria, with greater activity against both Gram-negative and Gram-positive organisms than third-generation agents. Cefepime is usually reserved to treat severe nosocomial pneumonia, infections caused by multi-resistant microorganisms (e.g. Pseudomonas aeruginosa) and empirical treatment of febrile neutropenia.

>  <Pathways>
Microbiology & Virology

>  <Target>
Antibiotic

>  <Receptor>
PBP, Fts1

>  <Reference>
1. Grassi GG, Grassi C. J Antimicrob Chemother. 1993 Nov;32 Suppl B:87-94. 

$$$$
T0805
  Mrv1561503291623562D          

 34 34  0  0  1  0            999 V2000
   -2.2869    0.9403    0.0000 C   0  0  0  0  0  0  0  0  0  0  0  0
   -1.4768    0.7844    0.0000 N   0  0  0  0  0  0  0  0  0  0  0  0
   -1.2068    0.0049    0.0000 C   0  0  0  0  0  0  0  0  0  0  0  0
   -1.7469   -0.6188    0.0000 C   0  0  0  0  0  0  0  0  0  0  0  0
   -1.4768   -1.3983    0.0000 C   0  0  0  0  0  0  0  0  0  0  0  0
   -2.0169   -2.0220    0.0000 C   0  0  0  0  0  0  0  0  0  0  0  0
   -2.8270   -1.8661    0.0000 C   0  0  0  0  0  0  0  0  0  0  0  0
   -3.0971   -1.0865    0.0000 C   0  0  0  0  0  0  0  0  0  0  0  0
   -2.5570   -0.4629    0.0000 C   0  0  0  0  0  0  0  0  0  0  0  0
   -2.8270    0.3167    0.0000 C   0  0  0  0  0  0  0  0  0  0  0  0
   -0.9367    1.4081    0.0000 C   0  0  0  0  0  0  0  0  0  0  0  0
   -1.2068    2.1876    0.0000 O   0  0  0  0  0  0  0  0  0  0  0  0
   -0.1266    1.2522    0.0000 C   0  0  0  0  0  0  0  0  0  0  0  0
    0.1435    0.4726    0.0000 N   0  0  0  0  0  0  0  0  0  0  0  0
    0.9536    0.3167    0.0000 C   0  0  0  0  0  0  0  0  0  0  0  0
    1.2236   -0.4629    0.0000 C   0  0  0  0  0  0  0  0  0  0  0  0
    2.0338   -0.6188    0.0000 C   0  0  0  0  0  0  0  0  0  0  0  0
    2.3038   -1.3983    0.0000 C   0  0  0  0  0  0  0  0  0  0  0  0
    3.1140   -1.5542    0.0000 C   0  0  0  0  0  0  0  0  0  0  0  0
    3.3840   -2.3338    0.0000 C   0  0  0  0  0  0  0  0  0  0  0  0
    2.8439   -2.9574    0.0000 C   0  0  0  0  0  0  0  0  0  0  0  0
    2.0338   -2.8015    0.0000 C   0  0  0  0  0  0  0  0  0  0  0  0
    1.7637   -2.0220    0.0000 C   0  0  0  0  0  0  0  0  0  0  0  0
    1.4937    0.9403    0.0000 C   0  0  0  0  0  0  0  0  0  0  0  0
    2.3038    0.7844    0.0000 O   0  0  0  0  0  0  0  0  0  0  0  0
    2.8439    1.4081    0.0000 C   0  0  0  0  0  0  0  0  0  0  0  0
    3.6540    1.2522    0.0000 C   0  0  0  0  0  0  0  0  0  0  0  0
    1.2236    1.7199    0.0000 O   0  0  0  0  0  0  0  0  0  0  0  0
    0.4135    1.8758    0.0000 C   0  0  0  0  0  0  0  0  0  0  0  0
   -2.5570    1.7199    0.0000 C   0  0  0  0  0  0  0  0  0  0  0  0
   -2.0169    2.3435    0.0000 O   0  0  0  0  0  0  0  0  0  0  0  0
   -3.3671    1.8758    0.0000 O   0  0  0  0  0  0  0  0  0  0  0  0
    6.8362    0.0000    0.0000 H   0  3  0  0  0  0  0  0  0  0  0  0
    6.0112    0.0000    0.0000 Cl  0  5  0  0  0  0  0  0  0  0  0  0
  1  2  1  0  0  0  0
  2  3  1  0  0  0  0
  3  4  1  0  0  0  0
  4  5  2  0  0  0  0
  5  6  1  0  0  0  0
  6  7  2  0  0  0  0
  7  8  1  0  0  0  0
  8  9  2  0  0  0  0
  4  9  1  0  0  0  0
  9 10  1  0  0  0  0
  1 10  1  0  0  0  0
  2 11  1  0  0  0  0
 11 12  2  0  0  0  0
 11 13  1  0  0  0  0
 13 14  1  0  0  0  0
 14 15  1  0  0  0  0
 15 16  1  0  0  0  0
 16 17  1  0  0  0  0
 17 18  1  0  0  0  0
 18 19  2  0  0  0  0
 19 20  1  0  0  0  0
 20 21  2  0  0  0  0
 21 22  1  0  0  0  0
 22 23  2  0  0  0  0
 18 23  1  0  0  0  0
 15 24  1  0  0  0  0
 24 25  1  0  0  0  0
 25 26  1  0  0  0  0
 26 27  1  0  0  0  0
 24 28  2  0  0  0  0
 13 29  1  0  0  0  0
  1 30  1  0  0  0  0
 30 31  1  0  0  0  0
 30 32  2  0  0  0  0
M  CHG  2  33   1  34  -1
M  END
>  <Name>
Quinapril HCl

>  <CAS>
82586-55-8

>  <Formula>
C25H31CIN2O5

>  <MolWt>
474.98 

>  <Bioactivity>
Quinapril hydrochloride (Accupril) used in the treatment of hypertension and congestive heart failure. Quinapril is a prodrug. Quinapril is converted to its active metabolite, quinaprilat, in the liver. Quinapril inhibits angiotensin converting enzyme, an enzyme which catalyses the formation of angiotensin II from its precursor, angiotensin I. Angiotensin II is a powerful vasoconstrictor and increases blood pressure through a variety of mechanisms. Due to reduced angiotensin production, plasma concentrations of aldosterone are also reduced, resulting in increased excretion of sodium in the urine and increased concentrations of potassium in the blood.

>  <Pathways>
Angiogenesis;Endocrinology/ Hormones

>  <Target>
RAAS inhibitor; ACE inhibitor

>  <Receptor>
ACE

>  <Reference>
1. Watson AM, et al. Atherosclerosis. 2014 Aug;235(2):444-8.

$$$$
T0876
  Mrv1561503291623562D          

 13 14  0  0  0  0            999 V2000
   -0.7145   -0.4125    0.0000 C   0  0  0  0  0  0  0  0  0  0  0  0
   -0.7145   -1.2375    0.0000 C   0  0  0  0  0  0  0  0  0  0  0  0
   -0.0000   -1.6500    0.0000 C   0  0  0  0  0  0  0  0  0  0  0  0
    0.7145   -1.2375    0.0000 C   0  0  0  0  0  0  0  0  0  0  0  0
    0.7145   -0.4125    0.0000 C   0  0  0  0  0  0  0  0  0  0  0  0
   -0.0000   -0.0000    0.0000 C   0  0  0  0  0  0  0  0  0  0  0  0
   -0.0000    0.8250    0.0000 Cl  0  0  0  0  0  0  0  0  0  0  0  0
    1.4289    0.0000    0.0000 C   0  0  0  0  0  0  0  0  0  0  0  0
    2.1434   -0.4125    0.0000 C   0  0  0  0  0  0  0  0  0  0  0  0
    2.1434   -1.2375    0.0000 C   0  0  0  0  0  0  0  0  0  0  0  0
    1.4289   -1.6500    0.0000 N   0  0  0  0  0  0  0  0  0  0  0  0
    0.0000   -2.4750    0.0000 O   0  0  0  0  0  0  0  0  0  0  0  0
   -1.4289   -1.6500    0.0000 I   0  0  0  0  0  0  0  0  0  0  0  0
  1  2  2  0  0  0  0
  2  3  1  0  0  0  0
  3  4  2  0  0  0  0
  4  5  1  0  0  0  0
  5  6  2  0  0  0  0
  1  6  1  0  0  0  0
  6  7  1  0  0  0  0
  5  8  1  0  0  0  0
  8  9  2  0  0  0  0
  9 10  1  0  0  0  0
 10 11  2  0  0  0  0
  4 11  1  0  0  0  0
  3 12  1  0  0  0  0
  2 13  1  0  0  0  0
M  END
>  <Name>
Clioquinol

>  <CAS>
130-26-7

>  <Formula>
C9H5ClINO

>  <MolWt>
305.50 

>  <Bioactivity>
A potentially neurotoxic 8-hydroxyquinoline derivative long used as a topical anti-infective, intestinal antiamebic, and vaginal trichomonacide. The oral preparation has been shown to cause subacute myelo-optic neuropathy and has been banned worldwide.  

>  <Pathways>
Microbiology & Virology

>  <Target>
Antibiotic

>  <Receptor>
Others

>  <Reference>
1. Rohde W, et al. Antimicrob Agents Chemother. 1976 Aug;10(2):234-40.

$$$$
73-78-9
  Mrv1561503291623562D          

 19 17  0  0  0  0            999 V2000
    0.4125    0.0000    0.0000 H   0  3  0  0  0  0  0  0  0  0  0  0
    2.7696    1.0507    0.0000 C   0  0  0  0  0  0  0  0  0  0  0  0
    3.1821    1.7652    0.0000 C   0  0  0  0  0  0  0  0  0  0  0  0
    4.0071    1.7652    0.0000 C   0  0  0  0  0  0  0  0  0  0  0  0
    4.4196    1.0507    0.0000 C   0  0  0  0  0  0  0  0  0  0  0  0
    4.0071    0.3362    0.0000 C   0  0  0  0  0  0  0  0  0  0  0  0
    3.1821    0.3362    0.0000 C   0  0  0  0  0  0  0  0  0  0  0  0
    2.7696   -0.3782    0.0000 C   0  0  0  0  0  0  0  0  0  0  0  0
    4.4196   -0.3782    0.0000 N   0  0  0  0  0  0  0  0  0  0  0  0
    5.2446   -0.3782    0.0000 C   0  0  0  0  0  0  0  0  0  0  0  0
    5.6571    0.3362    0.0000 O   0  0  0  0  0  0  0  0  0  0  0  0
    5.6571   -1.0927    0.0000 C   0  0  0  0  0  0  0  0  0  0  0  0
    6.4821   -1.0927    0.0000 N   0  0  0  0  0  0  0  0  0  0  0  0
    6.8946   -1.8072    0.0000 C   0  0  0  0  0  0  0  0  0  0  0  0
    7.7196   -1.8072    0.0000 C   0  0  0  0  0  0  0  0  0  0  0  0
    6.8946   -0.3782    0.0000 C   0  0  0  0  0  0  0  0  0  0  0  0
    7.7196   -0.3782    0.0000 C   0  0  0  0  0  0  0  0  0  0  0  0
    5.2446    1.0507    0.0000 C   0  0  0  0  0  0  0  0  0  0  0  0
   -0.4125    0.0000    0.0000 Cl  0  5  0  0  0  0  0  0  0  0  0  0
  2  3  2  0  0  0  0
  3  4  1  0  0  0  0
  4  5  2  0  0  0  0
  5  6  1  0  0  0  0
  6  7  2  0  0  0  0
  2  7  1  0  0  0  0
  7  8  1  0  0  0  0
  6  9  1  0  0  0  0
  9 10  1  0  0  0  0
 10 11  2  0  0  0  0
 10 12  1  0  0  0  0
 12 13  1  0  0  0  0
 13 14  1  0  0  0  0
 14 15  1  0  0  0  0
 13 16  1  0  0  0  0
 16 17  1  0  0  0  0
  5 18  1  0  0  0  0
M  CHG  2   1   1  19  -1
M  END
>  <Name>
Lidocaine HCl

>  <CAS>
73-78-9

>  <Formula>
C14H22N2O·HCl·H2O

>  <MolWt>
288.81 

>  <Bioactivity>
A local anesthetic and cardiac depressant used as an antiarrhythmia agent. Its actions are more intense and its effects more prolonged than those of PROCAINE but its duration of action is shorter than that of BUPIVACAINE or PRILOCAINE.

>  <Pathways>
Membrane Transporter/Ion Channel

>  <Target>
Sodium Channel inhibitor

>  <Receptor>
Sodium Channel

>  <Reference>
1. Moch CInt J Pharm. 2014 Apr 10;464(1-2):91-103.

$$$$
4394-00-7
  Mrv1561503291623562D          

 20 21  0  0  0  0            999 V2000
    1.4289   -2.4750    0.0000 C   0  0  0  0  0  0  0  0  0  0  0  0
    1.4289   -1.6500    0.0000 C   0  0  0  0  0  0  0  0  0  0  0  0
    2.1434   -1.2375    0.0000 C   0  0  0  0  0  0  0  0  0  0  0  0
    2.8579   -1.6500    0.0000 N   0  0  0  0  0  0  0  0  0  0  0  0
    2.8579   -2.4750    0.0000 C   0  0  0  0  0  0  0  0  0  0  0  0
    2.1434   -2.8875    0.0000 C   0  0  0  0  0  0  0  0  0  0  0  0
    2.1434   -0.4125    0.0000 N   0  0  0  0  0  0  0  0  0  0  0  0
    2.8579    0.0000    0.0000 C   0  0  0  0  0  0  0  0  0  0  0  0
    2.8579    0.8250    0.0000 C   0  0  0  0  0  0  0  0  0  0  0  0
    3.5724    1.2375    0.0000 C   0  0  0  0  0  0  0  0  0  0  0  0
    4.2868    0.8250    0.0000 C   0  0  0  0  0  0  0  0  0  0  0  0
    4.2868   -0.0000    0.0000 C   0  0  0  0  0  0  0  0  0  0  0  0
    3.5724   -0.4125    0.0000 C   0  0  0  0  0  0  0  0  0  0  0  0
    3.5724    2.0625    0.0000 C   0  0  0  0  0  0  0  0  0  0  0  0
    3.5724    2.8875    0.0000 F   0  0  0  0  0  0  0  0  0  0  0  0
    4.3974    2.0625    0.0000 F   0  0  0  0  0  0  0  0  0  0  0  0
    2.7474    2.0625    0.0000 F   0  0  0  0  0  0  0  0  0  0  0  0
    0.7145   -1.2375    0.0000 C   0  0  0  0  0  0  0  0  0  0  0  0
    0.7145   -0.4125    0.0000 O   0  0  0  0  0  0  0  0  0  0  0  0
   -0.0000   -1.6500    0.0000 O   0  0  0  0  0  0  0  0  0  0  0  0
  1  2  2  0  0  0  0
  2  3  1  0  0  0  0
  3  4  2  0  0  0  0
  4  5  1  0  0  0  0
  5  6  2  0  0  0  0
  1  6  1  0  0  0  0
  3  7  1  0  0  0  0
  7  8  1  0  0  0  0
  8  9  2  0  0  0  0
  9 10  1  0  0  0  0
 10 11  2  0  0  0  0
 11 12  1  0  0  0  0
 12 13  2  0  0  0  0
  8 13  1  0  0  0  0
 10 14  1  0  0  0  0
 14 15  1  0  0  0  0
 14 16  1  0  0  0  0
 14 17  1  0  0  0  0
  2 18  1  0  0  0  0
 18 19  1  0  0  0  0
 18 20  2  0  0  0  0
M  END
>  <Name>
Niflumic acid

>  <CAS>
4394-00-7

>  <Formula>
C13H9F3N2O2

>  <MolWt>
282.22 

>  <Bioactivity>
An analgesic and anti-inflammatory agent used in the treatment of rheumatoid arthritis. 

>  <Pathways>
Metabolism

>  <Target>
Chloride channel inducer;COX inhibitor; PLA inhibitor

>  <Receptor>
Chloride channel protein ClC-Ka; Prostaglandin G/H synthase;Monocarboxylate transporter;PLA2; UGT

>  <Reference>
1. Jabeen T, et al. Acta Crystallogr D Biol Crystallogr. 2005 Dec;61(Pt 12):1579-86.

$$$$
T3000
  Mrv1561503291623562D          

 20 21  0  0  0  0            999 V2000
    1.4289   -1.6500    0.0000 C   0  0  0  0  0  0  0  0  0  0  0  0
    1.4289   -2.4750    0.0000 C   0  0  0  0  0  0  0  0  0  0  0  0
    0.7145   -2.8875    0.0000 C   0  0  0  0  0  0  0  0  0  0  0  0
   -0.0000   -2.4750    0.0000 C   0  0  0  0  0  0  0  0  0  0  0  0
   -0.0000   -1.6500    0.0000 C   0  0  0  0  0  0  0  0  0  0  0  0
    0.7145   -1.2375    0.0000 C   0  0  0  0  0  0  0  0  0  0  0  0
    0.7145   -0.4125    0.0000 C   0  0  0  0  0  0  0  0  0  0  0  0
    0.0000    0.0000    0.0000 C   0  0  0  0  0  0  0  0  0  0  0  0
    0.0000    0.8250    0.0000 C   0  0  0  0  0  0  0  0  0  0  0  0
    0.7145    1.2375    0.0000 C   0  0  0  0  0  0  0  0  0  0  0  0
    1.4289    0.8250    0.0000 C   0  0  0  0  0  0  0  0  0  0  0  0
    1.4289   -0.0000    0.0000 C   0  0  0  0  0  0  0  0  0  0  0  0
    2.1434   -0.4125    0.0000 O   0  0  0  0  0  0  0  0  0  0  0  0
   -0.7145    1.2375    0.0000 C   0  0  0  0  0  0  0  0  0  0  0  0
   -0.7145    2.0625    0.0000 C   0  0  0  0  0  0  0  0  0  0  0  0
   -1.4289    2.4750    0.0000 C   0  0  0  0  0  0  0  0  0  0  0  0
   -0.7145   -1.2375    0.0000 O   0  0  0  0  0  0  0  0  0  0  0  0
    2.1434   -2.8875    0.0000 C   0  0  0  0  0  0  0  0  0  0  0  0
    2.1434   -3.7125    0.0000 C   0  0  0  0  0  0  0  0  0  0  0  0
    2.8579   -4.1250    0.0000 C   0  0  0  0  0  0  0  0  0  0  0  0
  1  2  2  0  0  0  0
  2  3  1  0  0  0  0
  3  4  2  0  0  0  0
  4  5  1  0  0  0  0
  5  6  2  0  0  0  0
  1  6  1  0  0  0  0
  6  7  1  0  0  0  0
  7  8  2  0  0  0  0
  8  9  1  0  0  0  0
  9 10  2  0  0  0  0
 10 11  1  0  0  0  0
 11 12  2  0  0  0  0
  7 12  1  0  0  0  0
 12 13  1  0  0  0  0
  9 14  1  0  0  0  0
 14 15  1  0  0  0  0
 15 16  2  0  0  0  0
  5 17  1  0  0  0  0
  2 18  1  0  0  0  0
 18 19  1  0  0  0  0
 19 20  2  0  0  0  0
M  END
>  <Name>
Magnolol

>  <CAS>
528-43-8

>  <Formula>
C18H18O2

>  <MolWt>
266.32 

>  <Bioactivity>
Magnolol is isomeric to honokiol (sc-202653). Magnolol is an anxiolytic,anti-thrombotic and antibacterial. . Inhibitor of nitric oxide (NO) and TNF-? production in LPS-activated macrophages by the suppression of inducible nitric oxide synthase(iNOS; NOS

>  <Pathways>
Immunology/Inflammation

>  <Target>
NF-?B inhibitor;p53 activator;PPAR inhibitor

>  <Receptor>
NF-?B;p53;PPAR?

>  <Reference>
1. Li M, et al. Cancer Sci. 2015 Oct;106(10):1341-50. 

$$$$
T3001
  Mrv1561503291623562D          

 20 21  0  0  0  0            999 V2000
    1.4289   -1.6500    0.0000 C   0  0  0  0  0  0  0  0  0  0  0  0
    1.4289   -2.4750    0.0000 C   0  0  0  0  0  0  0  0  0  0  0  0
    2.1434   -2.8875    0.0000 C   0  0  0  0  0  0  0  0  0  0  0  0
    2.8579   -2.4750    0.0000 C   0  0  0  0  0  0  0  0  0  0  0  0
    3.5724   -2.8875    0.0000 C   0  0  0  0  0  0  0  0  0  0  0  0
    3.5724   -3.7125    0.0000 C   0  0  0  0  0  0  0  0  0  0  0  0
    4.2868   -4.1250    0.0000 O   0  0  0  0  0  0  0  0  0  0  0  0
    2.8579   -4.1250    0.0000 C   0  0  0  0  0  0  0  0  0  0  0  0
    2.1434   -3.7125    0.0000 C   0  0  0  0  0  0  0  0  0  0  0  0
    4.2868   -2.4750    0.0000 C   0  0  0  0  0  0  0  0  0  0  0  0
    5.0013   -2.8875    0.0000 C   0  0  0  0  0  0  0  0  0  0  0  0
    5.7158   -2.4750    0.0000 C   0  0  0  0  0  0  0  0  0  0  0  0
    0.7145   -2.8875    0.0000 C   0  0  0  0  0  0  0  0  0  0  0  0
   -0.0000   -2.4750    0.0000 C   0  0  0  0  0  0  0  0  0  0  0  0
   -0.0000   -1.6500    0.0000 C   0  0  0  0  0  0  0  0  0  0  0  0
    0.7145   -1.2375    0.0000 C   0  0  0  0  0  0  0  0  0  0  0  0
    0.7145   -0.4125    0.0000 C   0  0  0  0  0  0  0  0  0  0  0  0
    1.4289   -0.0000    0.0000 C   0  0  0  0  0  0  0  0  0  0  0  0
    1.4289    0.8250    0.0000 C   0  0  0  0  0  0  0  0  0  0  0  0
    0.7145   -3.7125    0.0000 O   0  0  0  0  0  0  0  0  0  0  0  0
  1  2  2  0  0  0  0
  2  3  1  0  0  0  0
  3  4  2  0  0  0  0
  4  5  1  0  0  0  0
  5  6  2  0  0  0  0
  6  7  1  0  0  0  0
  6  8  1  0  0  0  0
  8  9  2  0  0  0  0
  3  9  1  0  0  0  0
  5 10  1  0  0  0  0
 10 11  1  0  0  0  0
 11 12  2  0  0  0  0
  2 13  1  0  0  0  0
 13 14  2  0  0  0  0
 14 15  1  0  0  0  0
 15 16  2  0  0  0  0
  1 16  1  0  0  0  0
 16 17  1  0  0  0  0
 17 18  1  0  0  0  0
 18 19  2  0  0  0  0
 13 20  1  0  0  0  0
M  END
>  <Name>
Honokiol

>  <CAS>
35354-74-6

>  <Formula>
C18H18O2

>  <MolWt>
266.32 

>  <Bioactivity>
Honokiol is the active principle of magnolia extract that inhibits Akt-phosphorylation and promotes ERK1/2 phosphorylation.

>  <Pathways>
PI3K/Akt/mTOR Signaling; MAPK Signaling

>  <Target>
Akt inhibitor;MEK inhibitor

>  <Receptor>
Akt-phosphorylation;MEK

>  <Reference>
1. Seo MS, et al. Toxicol Appl Pharmacol. 2015 Apr 15;284(2):113-24.

$$$$
94-62-2
  Mrv1561503291623562D          

 21 23  0  0  0  0            999 V2000
    3.2789    1.2375    0.0000 C   0  0  0  0  0  0  0  0  0  0  0  0
    3.9934    0.8250    0.0000 C   0  0  0  0  0  0  0  0  0  0  0  0
    4.7079    1.2375    0.0000 C   0  0  0  0  0  0  0  0  0  0  0  0
    5.4223    0.8250    0.0000 C   0  0  0  0  0  0  0  0  0  0  0  0
    6.1368    1.2375    0.0000 C   0  0  0  0  0  0  0  0  0  0  0  0
    6.8513    0.8250    0.0000 C   0  0  0  0  0  0  0  0  0  0  0  0
    7.5658    1.2375    0.0000 C   0  0  0  0  0  0  0  0  0  0  0  0
    8.2802    0.8250    0.0000 N   0  0  0  0  0  0  0  0  0  0  0  0
    8.9947    1.2375    0.0000 C   0  0  0  0  0  0  0  0  0  0  0  0
    9.7092    0.8250    0.0000 C   0  0  0  0  0  0  0  0  0  0  0  0
    9.7092   -0.0000    0.0000 C   0  0  0  0  0  0  0  0  0  0  0  0
    8.9947   -0.4125    0.0000 C   0  0  0  0  0  0  0  0  0  0  0  0
    8.2802    0.0000    0.0000 C   0  0  0  0  0  0  0  0  0  0  0  0
    7.5658    2.0625    0.0000 O   0  0  0  0  0  0  0  0  0  0  0  0
    3.9934    0.0000    0.0000 C   0  0  0  0  0  0  0  0  0  0  0  0
    3.2789   -0.4125    0.0000 C   0  0  0  0  0  0  0  0  0  0  0  0
    2.5645   -0.0000    0.0000 C   0  0  0  0  0  0  0  0  0  0  0  0
    2.5645    0.8250    0.0000 C   0  0  0  0  0  0  0  0  0  0  0  0
    1.7798    1.0799    0.0000 O   0  0  0  0  0  0  0  0  0  0  0  0
    1.2949    0.4125    0.0000 C   0  0  0  0  0  0  0  0  0  0  0  0
    1.7798   -0.2549    0.0000 O   0  0  0  0  0  0  0  0  0  0  0  0
  1  2  2  0  0  0  0
  2  3  1  0  0  0  0
  3  4  2  0  0  0  0
  4  5  1  0  0  0  0
  5  6  2  0  0  0  0
  6  7  1  0  0  0  0
  7  8  1  0  0  0  0
  8  9  1  0  0  0  0
  9 10  1  0  0  0  0
 10 11  1  0  0  0  0
 11 12  1  0  0  0  0
 12 13  1  0  0  0  0
  8 13  1  0  0  0  0
  7 14  2  0  0  0  0
  2 15  1  0  0  0  0
 15 16  2  0  0  0  0
 16 17  1  0  0  0  0
 17 18  2  0  0  0  0
  1 18  1  0  0  0  0
 18 19  1  0  0  0  0
 19 20  1  0  0  0  0
 20 21  1  0  0  0  0
 17 21  1  0  0  0  0
M  END
>  <Name>
Piperine

>  <CAS>
94-62-2

>  <Formula>
C17H19NO3

>  <MolWt>
285.35 

>  <Bioactivity>
Piperine (1-Piperoylpiperidine) is the alkaloid responsible for the pungency of black pepper and long pepper, which has also been used in some forms of traditional medicine and as an insecticide.

>  <Pathways>
Metabolism

>  <Target>
CYP inhibitor

>  <Receptor>
CYP3A4

>  <Reference>
1. Bhardwaj RK, et al. J Pharmacol Exp Ther, 2002, 302(2), 645-650.

$$$$
3681-99-0
  Mrv1561503291623562D          

 30 33  0  0  1  0            999 V2000
    1.4289    0.8250    0.0000 C   0  0  2  0  0  0  0  0  0  0  0  0
    0.7145    1.2375    0.0000 O   0  0  0  0  0  0  0  0  0  0  0  0
    0.7145    2.0625    0.0000 C   0  0  1  0  0  0  0  0  0  0  0  0
    1.4289    2.4750    0.0000 C   0  0  1  0  0  0  0  0  0  0  0  0
    1.4289    3.3000    0.0000 O   0  0  0  0  0  0  0  0  0  0  0  0
    2.1434    2.0625    0.0000 C   0  0  2  0  0  0  0  0  0  0  0  0
    2.8579    2.4750    0.0000 O   0  0  0  0  0  0  0  0  0  0  0  0
    2.1434    1.2375    0.0000 C   0  0  1  0  0  0  0  0  0  0  0  0
    2.8579    0.8250    0.0000 O   0  0  0  0  0  0  0  0  0  0  0  0
    0.0000    2.4750    0.0000 C   0  0  0  0  0  0  0  0  0  0  0  0
    0.0000    3.3000    0.0000 O   0  0  0  0  0  0  0  0  0  0  0  0
    1.4289   -0.0000    0.0000 C   0  0  0  0  0  0  0  0  0  0  0  0
    2.1434   -0.4125    0.0000 C   0  0  0  0  0  0  0  0  0  0  0  0
    2.8579   -0.0000    0.0000 O   0  0  0  0  0  0  0  0  0  0  0  0
    3.5724   -0.4125    0.0000 C   0  0  0  0  0  0  0  0  0  0  0  0
    3.5724   -1.2375    0.0000 C   0  0  0  0  0  0  0  0  0  0  0  0
    2.8579   -1.6500    0.0000 C   0  0  0  0  0  0  0  0  0  0  0  0
    2.8579   -2.4750    0.0000 O   0  0  0  0  0  0  0  0  0  0  0  0
    2.1434   -1.2375    0.0000 C   0  0  0  0  0  0  0  0  0  0  0  0
    1.4289   -1.6500    0.0000 C   0  0  0  0  0  0  0  0  0  0  0  0
    0.7145   -1.2375    0.0000 C   0  0  0  0  0  0  0  0  0  0  0  0
    0.7145   -0.4125    0.0000 C   0  0  0  0  0  0  0  0  0  0  0  0
    0.0000    0.0000    0.0000 O   0  0  0  0  0  0  0  0  0  0  0  0
    4.2868   -1.6500    0.0000 C   0  0  0  0  0  0  0  0  0  0  0  0
    5.0013   -1.2375    0.0000 C   0  0  0  0  0  0  0  0  0  0  0  0
    5.7158   -1.6500    0.0000 C   0  0  0  0  0  0  0  0  0  0  0  0
    5.7158   -2.4750    0.0000 C   0  0  0  0  0  0  0  0  0  0  0  0
    6.4302   -2.8875    0.0000 O   0  0  0  0  0  0  0  0  0  0  0  0
    5.0013   -2.8875    0.0000 C   0  0  0  0  0  0  0  0  0  0  0  0
    4.2868   -2.4750    0.0000 C   0  0  0  0  0  0  0  0  0  0  0  0
  1  2  1  0  0  0  0
  2  3  1  0  0  0  0
  3  4  1  0  0  0  0
  4  5  1  1  0  0  0
  4  6  1  0  0  0  0
  6  7  1  6  0  0  0
  6  8  1  0  0  0  0
  1  8  1  0  0  0  0
  8  9  1  1  0  0  0
  3 10  1  6  0  0  0
 10 11  1  0  0  0  0
  1 12  1  6  0  0  0
 12 13  2  0  0  0  0
 13 14  1  0  0  0  0
 14 15  1  0  0  0  0
 15 16  2  0  0  0  0
 16 17  1  0  0  0  0
 17 18  2  0  0  0  0
 17 19  1  0  0  0  0
 13 19  1  0  0  0  0
 19 20  2  0  0  0  0
 20 21  1  0  0  0  0
 21 22  2  0  0  0  0
 12 22  1  0  0  0  0
 22 23  1  0  0  0  0
 16 24  1  0  0  0  0
 24 25  2  0  0  0  0
 25 26  1  0  0  0  0
 26 27  2  0  0  0  0
 27 28  1  0  0  0  0
 27 29  1  0  0  0  0
 29 30  2  0  0  0  0
 24 30  1  0  0  0  0
M  END
>  <Name>
Puerarin (Kakonein)

>  <CAS>
3681-99-0

>  <Formula>
C21H20O9

>  <MolWt>
416.38 

>  <Bioactivity>
Puerarin (Kakonein), an isoflavones found in the root of Radix puerariae, is a 5-HT2C receptor and benzodiazepine site antagonist.

>  <Pathways>
Others

>  <Target>
Others

>  <Receptor>
Others

>  <Reference>
1. Overstreet DH, et al. Pharmacol Biochem Behav, 2003, 75(3), 619-625.

$$$$
94-07-5
  Mrv1561503291623562D          

 12 12  0  0  0  0            999 V2000
    1.4289   -0.0000    0.0000 C   0  0  0  0  0  0  0  0  0  0  0  0
    0.7145   -0.4125    0.0000 C   0  0  0  0  0  0  0  0  0  0  0  0
    0.7145   -1.2375    0.0000 C   0  0  0  0  0  0  0  0  0  0  0  0
    1.4289   -1.6500    0.0000 C   0  0  0  0  0  0  0  0  0  0  0  0
    1.4289   -2.4750    0.0000 N   0  0  0  0  0  0  0  0  0  0  0  0
    2.1434   -2.8875    0.0000 C   0  0  0  0  0  0  0  0  0  0  0  0
    0.0000   -1.6500    0.0000 O   0  0  0  0  0  0  0  0  0  0  0  0
   -0.0000   -0.0000    0.0000 C   0  0  0  0  0  0  0  0  0  0  0  0
   -0.0000    0.8250    0.0000 C   0  0  0  0  0  0  0  0  0  0  0  0
    0.7145    1.2375    0.0000 C   0  0  0  0  0  0  0  0  0  0  0  0
    1.4289    0.8250    0.0000 C   0  0  0  0  0  0  0  0  0  0  0  0
    0.7145    2.0625    0.0000 O   0  0  0  0  0  0  0  0  0  0  0  0
  1  2  2  0  0  0  0
  2  3  1  0  0  0  0
  3  4  1  0  0  0  0
  4  5  1  0  0  0  0
  5  6  1  0  0  0  0
  3  7  1  0  0  0  0
  2  8  1  0  0  0  0
  8  9  2  0  0  0  0
  9 10  1  0  0  0  0
 10 11  2  0  0  0  0
  1 11  1  0  0  0  0
 10 12  1  0  0  0  0
M  END
>  <Name>
Synephrine

>  <CAS>
94-07-5

>  <Formula>
C9H13NO2

>  <MolWt>
167.21 

>  <Bioactivity>
Sympathetic alpha-adrenergic agonist with actions like PHENYLEPHRINE. It is used as a vasoconstrictor in circulatory failure, asthma, nasal congestion, and glaucoma.

>  <Pathways>
GPCR/G Protein

>  <Target>
Adrenergic Receptor antagonist

>  <Receptor>
Adrenergic Receptor

>  <Reference>
1. Hong NY, et al. Biochem Biophys Res Commun, 2012, 418(4), 720-724.

$$$$
9007-28-7
  Mrv1561503291623562D          

 30 31  0  0  1  0            999 V2000
   -0.7145   -1.2375    0.0000 C   0  0  2  0  0  0  0  0  0  0  0  0
   -0.0000   -1.6500    0.0000 C   0  0  2  0  0  0  0  0  0  0  0  0
   -0.0000   -2.4750    0.0000 C   0  0  1  0  0  0  0  0  0  0  0  0
   -0.7145   -2.8875    0.0000 O   0  0  0  0  0  0  0  0  0  0  0  0
   -1.4289   -2.4750    0.0000 C   0  0  1  0  0  0  0  0  0  0  0  0
   -1.4289   -1.6500    0.0000 C   0  0  2  0  0  0  0  0  0  0  0  0
   -2.1434   -1.2375    0.0000 O   0  0  0  0  0  0  0  0  0  0  0  0
   -2.1434   -2.8875    0.0000 O   0  0  0  0  0  0  0  0  0  0  0  0
   -2.1434   -3.7125    0.0000 S   0  0  0  0  0  0  0  0  0  0  0  0
   -2.1434   -4.5375    0.0000 O   0  0  0  0  0  0  0  0  0  0  0  0
   -1.3184   -3.7125    0.0000 O   0  0  0  0  0  0  0  0  0  0  0  0
   -2.9684   -3.7125    0.0000 O   0  0  0  0  0  0  0  0  0  0  0  0
    0.7145   -2.8875    0.0000 O   0  0  0  0  0  0  0  0  0  0  0  0
    0.7145   -1.2375    0.0000 N   0  0  0  0  0  0  0  0  0  0  0  0
    1.4289   -1.6500    0.0000 C   0  0  0  0  0  0  0  0  0  0  0  0
    1.4289   -2.4750    0.0000 C   0  0  0  0  0  0  0  0  0  0  0  0
    2.1434   -1.2375    0.0000 O   0  0  0  0  0  0  0  0  0  0  0  0
   -0.7145   -0.4125    0.0000 O   0  0  0  0  0  0  0  0  0  0  0  0
   -1.4289    0.0000    0.0000 C   0  0  2  0  0  0  0  0  0  0  0  0
   -2.1434   -0.4125    0.0000 O   0  0  0  0  0  0  0  0  0  0  0  0
   -2.8579    0.0000    0.0000 C   0  0  1  0  0  0  0  0  0  0  0  0
   -2.8579    0.8250    0.0000 C   0  0  2  0  0  0  0  0  0  0  0  0
   -2.1434    1.2375    0.0000 C   0  0  1  0  0  0  0  0  0  0  0  0
   -1.4289    0.8250    0.0000 C   0  0  1  0  0  0  0  0  0  0  0  0
   -0.7145    1.2375    0.0000 O   0  0  0  0  0  0  0  0  0  0  0  0
   -2.1434    2.0625    0.0000 O   0  0  0  0  0  0  0  0  0  0  0  0
   -3.5724    1.2375    0.0000 O   0  0  0  0  0  0  0  0  0  0  0  0
   -3.5724   -0.4125    0.0000 C   0  0  0  0  0  0  0  0  0  0  0  0
   -4.2868   -0.0000    0.0000 O   0  0  0  0  0  0  0  0  0  0  0  0
   -3.5724   -1.2375    0.0000 O   0  0  0  0  0  0  0  0  0  0  0  0
  1  2  1  0  0  0  0
  2  3  1  0  0  0  0
  3  4  1  0  0  0  0
  4  5  1  0  0  0  0
  5  6  1  0  0  0  0
  1  6  1  0  0  0  0
  6  7  1  6  0  0  0
  5  8  1  6  0  0  0
  8  9  1  0  0  0  0
  9 10  1  0  0  0  0
  9 11  2  0  0  0  0
  9 12  2  0  0  0  0
  3 13  1  6  0  0  0
  2 14  1  1  0  0  0
 14 15  1  0  0  0  0
 15 16  1  0  0  0  0
 15 17  2  0  0  0  0
  1 18  1  6  0  0  0
 19 18  1  6  0  0  0
 19 20  1  0  0  0  0
 20 21  1  0  0  0  0
 21 22  1  0  0  0  0
 22 23  1  0  0  0  0
 23 24  1  0  0  0  0
 19 24  1  0  0  0  0
 24 25  1  1  0  0  0
 23 26  1  6  0  0  0
 22 27  1  1  0  0  0
 21 28  1  6  0  0  0
 28 29  1  0  0  0  0
 28 30  2  0  0  0  0
M  END
>  <Name>
Chondroitine sulfate

>  <CAS>
9007-28-7

>  <Formula>
C13H21NO15S

>  <MolWt>
463.37 

>  <Bioactivity>
Extracted from shark bone;Store the product in sealed, cool and dry condition

>  <Pathways>
Others

>  <Target>
Others

>  <Receptor>
Others

>  <Reference>
1. Kakizaki I, et al.Carbohydr Polym. 2015 May 5;121:362-71. 

$$$$
4852-22-6
  Mrv1561503291623562D          

 43 48  0  0  0  0            999 V2000
    2.0363   -3.2610    0.0000 C   0  0  0  0  0  0  0  0  0  0  0  0
    1.2118   -3.2322    0.0000 C   0  0  0  0  0  0  0  0  0  0  0  0
    0.8245   -2.5038    0.0000 O   0  0  0  0  0  0  0  0  0  0  0  0
   -0.0000   -2.4750    0.0000 C   0  0  0  0  0  0  0  0  0  0  0  0
   -0.4372   -3.1746    0.0000 C   0  0  0  0  0  0  0  0  0  0  0  0
   -0.0499   -3.9031    0.0000 C   0  0  0  0  0  0  0  0  0  0  0  0
    0.7746   -3.9319    0.0000 C   0  0  0  0  0  0  0  0  0  0  0  0
    1.1619   -4.6603    0.0000 C   0  0  0  0  0  0  0  0  0  0  0  0
    1.9864   -4.6891    0.0000 C   0  0  0  0  0  0  0  0  0  0  0  0
    2.4236   -3.9894    0.0000 C   0  0  0  0  0  0  0  0  0  0  0  0
    3.2481   -4.0182    0.0000 O   0  0  0  0  0  0  0  0  0  0  0  0
    0.7248   -5.3599    0.0000 O   0  0  0  0  0  0  0  0  0  0  0  0
   -0.4871   -4.6027    0.0000 O   0  0  0  0  0  0  0  0  0  0  0  0
   -1.2617   -3.1458    0.0000 O   0  0  0  0  0  0  0  0  0  0  0  0
   -0.0000   -1.6500    0.0000 O   0  0  0  0  0  0  0  0  0  0  0  0
    0.7145   -1.2375    0.0000 C   0  0  0  0  0  0  0  0  0  0  0  0
    0.7145   -0.4125    0.0000 C   0  0  0  0  0  0  0  0  0  0  0  0
    1.4289   -0.0000    0.0000 O   0  0  0  0  0  0  0  0  0  0  0  0
    2.1434   -0.4125    0.0000 C   0  0  0  0  0  0  0  0  0  0  0  0
    2.8579   -0.0000    0.0000 C   0  0  0  0  0  0  0  0  0  0  0  0
    3.5724   -0.4125    0.0000 C   0  0  0  0  0  0  0  0  0  0  0  0
    3.5724   -1.2375    0.0000 C   0  0  0  0  0  0  0  0  0  0  0  0
    2.8579   -1.6500    0.0000 C   0  0  0  0  0  0  0  0  0  0  0  0
    2.1434   -1.2375    0.0000 C   0  0  0  0  0  0  0  0  0  0  0  0
    1.4289   -1.6500    0.0000 C   0  0  0  0  0  0  0  0  0  0  0  0
    2.8579   -2.4750    0.0000 O   0  0  0  0  0  0  0  0  0  0  0  0
    4.2868    0.0000    0.0000 O   0  0  0  0  0  0  0  0  0  0  0  0
   -0.0000   -0.0000    0.0000 C   0  0  0  0  0  0  0  0  0  0  0  0
   -0.7145   -0.4125    0.0000 C   0  0  0  0  0  0  0  0  0  0  0  0
   -1.4289   -0.0000    0.0000 C   0  0  0  0  0  0  0  0  0  0  0  0
   -1.4289    0.8250    0.0000 C   0  0  0  0  0  0  0  0  0  0  0  0
   -0.7145    1.2375    0.0000 C   0  0  0  0  0  0  0  0  0  0  0  0
   -0.0000    0.8250    0.0000 C   0  0  0  0  0  0  0  0  0  0  0  0
   -2.1434    1.2375    0.0000 O   0  0  0  0  0  0  0  0  0  0  0  0
   -2.1434   -0.4125    0.0000 O   0  0  0  0  0  0  0  0  0  0  0  0
   -0.6840   -2.0137    0.0000 C   0  0  0  0  0  0  0  0  0  0  0  0
   -1.4255   -2.3753    0.0000 C   0  0  0  0  0  0  0  0  0  0  0  0
   -2.1094   -1.9140    0.0000 C   0  0  0  0  0  0  0  0  0  0  0  0
   -2.0519   -1.0910    0.0000 C   0  0  0  0  0  0  0  0  0  0  0  0
   -1.3104   -0.7293    0.0000 C   0  0  0  0  0  0  0  0  0  0  0  0
   -0.6264   -1.1907    0.0000 C   0  0  0  0  0  0  0  0  0  0  0  0
   -2.7358   -0.6297    0.0000 O   0  0  0  0  0  0  0  0  0  0  0  0
   -2.8509   -2.2756    0.0000 O   0  0  0  0  0  0  0  0  0  0  0  0
  1  2  2  0  0  0  0
  2  3  1  0  0  0  0
  3  4  1  0  0  0  0
  4  5  1  0  0  0  0
  5  6  1  0  0  0  0
  6  7  1  0  0  0  0
  2  7  1  0  0  0  0
  7  8  2  0  0  0  0
  8  9  1  0  0  0  0
  9 10  2  0  0  0  0
  1 10  1  0  0  0  0
 10 11  1  0  0  0  0
  8 12  1  0  0  0  0
  6 13  1  0  0  0  0
  5 14  1  0  0  0  0
  4 15  1  0  0  0  0
 15 16  1  0  0  0  0
 16 17  1  0  0  0  0
 17 18  1  0  0  0  0
 18 19  1  0  0  0  0
 19 20  2  0  0  0  0
 20 21  1  0  0  0  0
 21 22  2  0  0  0  0
 22 23  1  0  0  0  0
 23 24  2  0  0  0  0
 19 24  1  0  0  0  0
 24 25  1  0  0  0  0
 16 25  1  0  0  0  0
 23 26  1  0  0  0  0
 21 27  1  0  0  0  0
 17 28  1  0  0  0  0
 28 29  2  0  0  0  0
 29 30  1  0  0  0  0
 30 31  2  0  0  0  0
 31 32  1  0  0  0  0
 32 33  2  0  0  0  0
 28 33  1  0  0  0  0
 31 34  1  0  0  0  0
 30 35  1  0  0  0  0
  4 36  1  0  0  0  0
 36 37  2  0  0  0  0
 37 38  1  0  0  0  0
 38 39  2  0  0  0  0
 39 40  1  0  0  0  0
 40 41  2  0  0  0  0
 36 41  1  0  0  0  0
 39 42  1  0  0  0  0
 38 43  1  0  0  0  0
M  END
>  <Name>
Proanthocyanidins

>  <CAS>
4852-22-6

>  <Formula>
C30H26O12

>  <MolWt>
578.53 

>  <Bioactivity>
Extracted from Grape seed,pine bark coast of France; Suitability:Water,most organic solvents;Store the product in sealed,cool and dry condition

>  <Pathways>
Others

>  <Target>
Others

>  <Receptor>
Others

>  <Reference>
1. Ma J, et al. Nan Fang Yi Ke Da Xue Xue Bao. 2015 Aug;35(8):1110-5. Chinese.

$$$$
1449-05-4
  Mrv1561503291623562D          

 34 38  0  0  1  0            999 V2000
    3.6020    1.1270    0.0000 C   0  0  1  0  0  0  0  0  0  0  0  0
    4.0145    0.4125    0.0000 C   0  0  1  0  0  0  0  0  0  0  0  0
    4.8395    0.4125    0.0000 C   0  0  2  0  0  0  0  0  0  0  0  0
    5.2520    1.1270    0.0000 C   0  0  1  0  0  0  0  0  0  0  0  0
    4.8395    1.8414    0.0000 C   0  0  0  0  0  0  0  0  0  0  0  0
    4.0145    1.8414    0.0000 C   0  0  0  0  0  0  0  0  0  0  0  0
    6.0770    1.1270    0.0000 C   0  0  0  0  0  0  0  0  0  0  0  0
    6.4895    0.4125    0.0000 C   0  0  1  0  0  0  0  0  0  0  0  0
    7.3145    0.4125    0.0000 O   0  0  0  0  0  0  0  0  0  0  0  0
    6.0770   -0.3020    0.0000 C   0  0  0  0  0  0  0  0  0  0  0  0
    5.2520   -0.3020    0.0000 C   0  0  0  0  0  0  0  0  0  0  0  0
    6.1058    1.9515    0.0000 C   0  0  0  0  0  0  0  0  0  0  0  0
    6.7766    1.5642    0.0000 C   0  0  0  0  0  0  0  0  0  0  0  0
    4.4270   -0.3020    0.0000 C   0  0  0  0  0  0  0  0  0  0  0  0
    3.6020   -0.3020    0.0000 C   0  0  0  0  0  0  0  0  0  0  0  0
    4.0145   -1.0164    0.0000 O   0  0  0  0  0  0  0  0  0  0  0  0
    2.7770   -0.3020    0.0000 C   0  0  0  0  0  0  0  0  0  0  0  0
    2.3645    0.4125    0.0000 C   0  0  0  0  0  0  0  0  0  0  0  0
    2.7770    1.1270    0.0000 C   0  0  1  0  0  0  0  0  0  0  0  0
    2.3645    1.8414    0.0000 C   0  0  0  0  0  0  0  0  0  0  0  0
    1.5395    1.8414    0.0000 C   0  0  0  0  0  0  0  0  0  0  0  0
    1.1270    1.1270    0.0000 C   0  0  2  0  0  0  0  0  0  0  0  0
    1.5395    0.4125    0.0000 C   0  0  1  0  0  0  0  0  0  0  0  0
    1.1270   -0.3020    0.0000 C   0  0  0  0  0  0  0  0  0  0  0  0
    0.3020   -0.3020    0.0000 C   0  0  1  0  0  0  0  0  0  0  0  0
   -0.1105    0.4125    0.0000 C   0  0  0  0  0  0  0  0  0  0  0  0
    0.3020    1.1270    0.0000 C   0  0  0  0  0  0  0  0  0  0  0  0
    0.2732   -1.1265    0.0000 C   0  0  0  0  0  0  0  0  0  0  0  0
   -0.3977   -0.7392    0.0000 C   0  0  0  0  0  0  0  0  0  0  0  0
   -0.3689   -1.5637    0.0000 O   0  5  0  0  0  0  0  0  0  0  0  0
   -1.1261   -0.3518    0.0000 O   0  0  0  0  0  0  0  0  0  0  0  0
    0.7145    1.8414    0.0000 C   0  0  0  0  0  0  0  0  0  0  0  0
    3.1895    1.8414    0.0000 C   0  0  0  0  0  0  0  0  0  0  0  0
    3.6882    1.9475    0.0000 C   0  0  0  0  0  0  0  0  0  0  0  0
  1  2  1  0  0  0  0
  2  3  1  0  0  0  0
  3  4  1  0  0  0  0
  4  5  1  1  0  0  0
  5  6  1  0  0  0  0
  1  6  1  0  0  0  0
  4  7  1  0  0  0  0
  7  8  1  0  0  0  0
  8  9  1  1  0  0  0
  8 10  1  0  0  0  0
 10 11  1  0  0  0  0
  3 11  1  0  0  0  0
  7 12  1  0  0  0  0
  7 13  1  0  0  0  0
  3 14  1  1  0  0  0
  2 15  1  1  0  0  0
 15 16  2  0  0  0  0
 15 17  1  0  0  0  0
 17 18  2  0  0  0  0
 18 19  1  0  0  0  0
  1 19  1  0  0  0  0
 19 20  1  0  0  0  0
 20 21  1  0  0  0  0
 21 22  1  0  0  0  0
 22 23  1  0  0  0  0
 18 23  1  0  0  0  0
 23 24  1  6  0  0  0
 24 25  1  0  0  0  0
 25 26  1  0  0  0  0
 26 27  1  0  0  0  0
 22 27  1  0  0  0  0
 25 28  1  6  0  0  0
 25 29  1  1  0  0  0
 29 30  1  0  0  0  0
 29 31  2  0  0  0  0
 22 32  1  1  0  0  0
 19 33  1  6  0  0  0
  1 34  1  1  0  0  0
M  CHG  1  30  -1
M  END
>  <Name>
Glycyrrhetinic acid(Enoxolone)

>  <CAS>
1449-05-4

>  <Formula>
C30H46O4

>  <MolWt>
470.68 

>  <Bioactivity>
Enoxolone (INN, BAN; also known as glycyrrhetinic acid) is a pentacyclic triterpenoid derivative of the beta-amyrin type obtained from the hydrolysis of glycyrrhizic acid, which was obtained from the herb liquorice. It is used in flavoring and it masks the bitter taste of drugs like aloe and quinine. It is effective in the treatment of peptic ulcer and also has expectorant (antitussive) properties.

>  <Pathways>
Others

>  <Target>
Others

>  <Receptor>
Others

>  <Reference>
1. Parida PK, et al. Bioorg Med Chem Lett. 2014 Aug 15;24(16):3865-8. 

$$$$
470-82-6
  Mrv1561503291623562D          

 11 12  0  0  0  0            999 V2000
    0.8106   -0.2459    0.0000 C   0  0  0  0  0  0  0  0  0  0  0  0
    0.0962    0.1666    0.0000 O   0  0  0  0  0  0  0  0  0  0  0  0
    0.0962    0.9916    0.0000 C   0  0  0  0  0  0  0  0  0  0  0  0
    0.8106    1.4041    0.0000 C   0  0  0  0  0  0  0  0  0  0  0  0
    1.5251    0.9916    0.0000 C   0  0  0  0  0  0  0  0  0  0  0  0
    1.5251    0.1666    0.0000 C   0  0  0  0  0  0  0  0  0  0  0  0
    0.9481    0.8541    0.0000 C   0  0  0  0  0  0  0  0  0  0  0  0
    0.9481    0.3041    0.0000 C   0  0  0  0  0  0  0  0  0  0  0  0
   -0.7283    1.0203    0.0000 C   0  0  0  0  0  0  0  0  0  0  0  0
   -0.3410    1.6912    0.0000 C   0  0  0  0  0  0  0  0  0  0  0  0
    0.8106   -1.0709    0.0000 C   0  0  0  0  0  0  0  0  0  0  0  0
  1  2  1  0  0  0  0
  2  3  1  0  0  0  0
  3  4  1  0  0  0  0
  4  5  1  0  0  0  0
  5  6  1  0  0  0  0
  1  6  1  0  0  0  0
  4  7  1  0  0  0  0
  7  8  1  0  0  0  0
  1  8  1  0  0  0  0
  3  9  1  0  0  0  0
  3 10  1  0  0  0  0
  1 11  1  0  0  0  0
M  END
>  <Name>
Eucalyptol

>  <CAS>
470-82-6

>  <Formula>
C10H18O

>  <MolWt>
154.25 

>  <Bioactivity>
Eucalyptol is a natural organic compound which is a colorless liquid. It is a cyclic ether and a monoterpenoid. Eucalyptol is an ingredient in many brands of mouthwash and cough suppressant. It controls airway mucus hypersecretion and asthma via anti-inflammatory cytokine inhibition. Eucalyptol is an effective treatment for nonpurulent rhinosinusitis. Eucalyptol reduces inflammation and pain when applied topically. It kills leukaemia cells in vitro. 

>  <Pathways>
Others

>  <Target>
Others

>  <Receptor>
Others

>  <Reference>
1. Zeraatpisheh Z, Vatanparast J. Eur J Pharmacol. 2015 Oct 5;764:70-8. 

$$$$
518-82-1
  Mrv1561503291623562D          

 20 22  0  0  0  0            999 V2000
    3.5724    1.2375    0.0000 C   0  0  0  0  0  0  0  0  0  0  0  0
    2.8579    0.8250    0.0000 C   0  0  0  0  0  0  0  0  0  0  0  0
    2.8579   -0.0000    0.0000 C   0  0  0  0  0  0  0  0  0  0  0  0
    3.5724   -0.4125    0.0000 C   0  0  0  0  0  0  0  0  0  0  0  0
    4.2868    0.0000    0.0000 C   0  0  0  0  0  0  0  0  0  0  0  0
    4.2868    0.8250    0.0000 C   0  0  0  0  0  0  0  0  0  0  0  0
    5.0013    1.2375    0.0000 C   0  0  0  0  0  0  0  0  0  0  0  0
    3.5724   -1.2375    0.0000 O   0  0  0  0  0  0  0  0  0  0  0  0
    2.1434   -0.4125    0.0000 C   0  0  0  0  0  0  0  0  0  0  0  0
    1.4289    0.0000    0.0000 C   0  0  0  0  0  0  0  0  0  0  0  0
    0.7145   -0.4125    0.0000 C   0  0  0  0  0  0  0  0  0  0  0  0
    0.0000   -0.0000    0.0000 C   0  0  0  0  0  0  0  0  0  0  0  0
   -0.0000    0.8250    0.0000 C   0  0  0  0  0  0  0  0  0  0  0  0
    0.7145    1.2375    0.0000 C   0  0  0  0  0  0  0  0  0  0  0  0
    1.4289    0.8250    0.0000 C   0  0  0  0  0  0  0  0  0  0  0  0
    2.1434    1.2375    0.0000 C   0  0  0  0  0  0  0  0  0  0  0  0
    2.1434    2.0625    0.0000 O   0  0  0  0  0  0  0  0  0  0  0  0
   -0.7145    1.2375    0.0000 O   0  0  0  0  0  0  0  0  0  0  0  0
    0.7145   -1.2375    0.0000 O   0  0  0  0  0  0  0  0  0  0  0  0
    2.1434   -1.2375    0.0000 O   0  0  0  0  0  0  0  0  0  0  0  0
  1  2  2  0  0  0  0
  2  3  1  0  0  0  0
  3  4  2  0  0  0  0
  4  5  1  0  0  0  0
  5  6  2  0  0  0  0
  1  6  1  0  0  0  0
  6  7  1  0  0  0  0
  4  8  1  0  0  0  0
  3  9  1  0  0  0  0
  9 10  1  0  0  0  0
 10 11  2  0  0  0  0
 11 12  1  0  0  0  0
 12 13  2  0  0  0  0
 13 14  1  0  0  0  0
 14 15  2  0  0  0  0
 10 15  1  0  0  0  0
 15 16  1  0  0  0  0
  2 16  1  0  0  0  0
 16 17  2  0  0  0  0
 13 18  1  0  0  0  0
 11 19  1  0  0  0  0
  9 20  2  0  0  0  0
M  END
>  <Name>
Emodin

>  <CAS>
518-82-1

>  <Formula>
C15H10O5

>  <MolWt>
270.24 

>  <Bioactivity>
Description: IC50 Value: observed at 72 hr were as follows: 66.9 uM, Hep3B cells; 74.36 uM, HepG2 cells; and 101.5 uM, Huh7 cells

>  <Pathways>
Metabolism

>  <Target>
Dehydrogenase inhibitor

>  <Receptor>
Dehydrogenase

>  <Reference>
1. Cha TL, et al. Mol Carcinog. 2015 Mar;54(3):167-77. 

$$$$
501-98-4
  Mrv1561503291623562D          

 12 12  0  0  0  0            999 V2000
    1.4289   -0.0000    0.0000 C   0  0  0  0  0  0  0  0  0  0  0  0
    0.7145   -0.4125    0.0000 C   0  0  0  0  0  0  0  0  0  0  0  0
   -0.0000   -0.0000    0.0000 C   0  0  0  0  0  0  0  0  0  0  0  0
   -0.0000    0.8250    0.0000 C   0  0  0  0  0  0  0  0  0  0  0  0
    0.7145    1.2375    0.0000 C   0  0  0  0  0  0  0  0  0  0  0  0
    1.4289    0.8250    0.0000 C   0  0  0  0  0  0  0  0  0  0  0  0
    0.7145    2.0625    0.0000 O   0  0  0  0  0  0  0  0  0  0  0  0
    0.7145   -1.2375    0.0000 C   0  0  0  0  0  0  0  0  0  0  0  0
   -0.0000   -1.6500    0.0000 C   0  0  0  0  0  0  0  0  0  0  0  0
   -0.0000   -2.4750    0.0000 C   0  0  0  0  0  0  0  0  0  0  0  0
    0.7145   -2.8875    0.0000 O   0  0  0  0  0  0  0  0  0  0  0  0
   -0.7145   -2.8875    0.0000 O   0  0  0  0  0  0  0  0  0  0  0  0
  1  2  2  0  0  0  0
  2  3  1  0  0  0  0
  3  4  2  0  0  0  0
  4  5  1  0  0  0  0
  5  6  2  0  0  0  0
  1  6  1  0  0  0  0
  5  7  1  0  0  0  0
  2  8  1  0  0  0  0
  8  9  2  0  0  0  0
  9 10  1  0  0  0  0
 10 11  1  0  0  0  0
 10 12  2  0  0  0  0
M  END
>  <Name>
p-Coumaric acid

>  <CAS>
501-98-4

>  <Formula>
C9H8O3

>  <MolWt>
164.16 

>  <Bioactivity>
: Actions Hydroxycinnamic acid found in many fruits and vegetables. Other Notes :Predominantly trans isomer. Packaging: 1,5,10,25 g in poly bottle

>  <Pathways>
Others

>  <Target>
Others

>  <Receptor>
Others

>  <Reference>
1. Dang YJ, Zhu CY. J Food Sci. 2015 Mar;80(3):C504-9. 

$$$$
66085-59-4
  Mrv1561503291623562D          

 30 31  0  0  0  0            999 V2000
   -0.7145    2.0625    0.0000 C   0  0  0  0  0  0  0  0  0  0  0  0
   -0.7145    1.2375    0.0000 C   0  0  0  0  0  0  0  0  0  0  0  0
   -1.4289    0.8250    0.0000 C   0  0  0  0  0  0  0  0  0  0  0  0
   -1.4289    0.0000    0.0000 C   0  0  0  0  0  0  0  0  0  0  0  0
   -2.1434   -0.4125    0.0000 C   0  0  0  0  0  0  0  0  0  0  0  0
   -2.8579    0.0000    0.0000 N   0  0  0  0  0  0  0  0  0  0  0  0
   -2.8579    0.8250    0.0000 C   0  0  0  0  0  0  0  0  0  0  0  0
   -2.1434    1.2375    0.0000 C   0  0  0  0  0  0  0  0  0  0  0  0
   -2.1434    2.0625    0.0000 C   0  0  0  0  0  0  0  0  0  0  0  0
   -2.8579    2.4750    0.0000 O   0  0  0  0  0  0  0  0  0  0  0  0
   -2.8579    3.3000    0.0000 C   0  0  0  0  0  0  0  0  0  0  0  0
   -3.5724    3.7125    0.0000 C   0  0  0  0  0  0  0  0  0  0  0  0
   -2.1434    3.7125    0.0000 C   0  0  0  0  0  0  0  0  0  0  0  0
   -1.4289    2.4750    0.0000 O   0  0  0  0  0  0  0  0  0  0  0  0
   -3.5724    1.2375    0.0000 C   0  0  0  0  0  0  0  0  0  0  0  0
   -2.1434   -1.2375    0.0000 C   0  0  0  0  0  0  0  0  0  0  0  0
   -0.7145   -0.4125    0.0000 C   0  0  0  0  0  0  0  0  0  0  0  0
    0.0000    0.0000    0.0000 O   0  0  0  0  0  0  0  0  0  0  0  0
    0.7145   -0.4125    0.0000 C   0  0  0  0  0  0  0  0  0  0  0  0
    1.4289    0.0000    0.0000 C   0  0  0  0  0  0  0  0  0  0  0  0
    2.1434   -0.4125    0.0000 O   0  0  0  0  0  0  0  0  0  0  0  0
    2.8579    0.0000    0.0000 C   0  0  0  0  0  0  0  0  0  0  0  0
   -0.7145   -1.2375    0.0000 O   0  0  0  0  0  0  0  0  0  0  0  0
   -0.0000    0.8250    0.0000 C   0  0  0  0  0  0  0  0  0  0  0  0
    0.7145    1.2375    0.0000 C   0  0  0  0  0  0  0  0  0  0  0  0
    0.7145    2.0625    0.0000 C   0  0  0  0  0  0  0  0  0  0  0  0
    0.0000    2.4750    0.0000 C   0  0  0  0  0  0  0  0  0  0  0  0
    0.0000    3.3000    0.0000 N   0  3  0  0  0  0  0  0  0  0  0  0
    0.7145    3.7125    0.0000 O   0  0  0  0  0  0  0  0  0  0  0  0
   -0.7145    3.7125    0.0000 O   0  5  0  0  0  0  0  0  0  0  0  0
  1  2  2  0  0  0  0
  2  3  1  0  0  0  0
  3  4  1  0  0  0  0
  4  5  2  0  0  0  0
  5  6  1  0  0  0  0
  6  7  1  0  0  0  0
  7  8  2  0  0  0  0
  3  8  1  0  0  0  0
  8  9  1  0  0  0  0
  9 10  1  0  0  0  0
 10 11  1  0  0  0  0
 11 12  1  0  0  0  0
 11 13  1  0  0  0  0
  9 14  2  0  0  0  0
  7 15  1  0  0  0  0
  5 16  1  0  0  0  0
  4 17  1  0  0  0  0
 17 18  1  0  0  0  0
 18 19  1  0  0  0  0
 19 20  1  0  0  0  0
 20 21  1  0  0  0  0
 21 22  1  0  0  0  0
 17 23  2  0  0  0  0
  2 24  1  0  0  0  0
 24 25  2  0  0  0  0
 25 26  1  0  0  0  0
 26 27  2  0  0  0  0
  1 27  1  0  0  0  0
 27 28  1  0  0  0  0
 28 29  2  0  0  0  0
 28 30  1  0  0  0  0
M  CHG  2  28   1  30  -1
M  END
>  <Name>
Nimodipine

>  <CAS>
66085-59-4

>  <Formula>
C21H26N2O7

>  <MolWt>
418.44 

>  <Bioactivity>
A calcium channel blockader with preferential cerebrovascular activity. It has marked cerebrovascular dilating effects and lowers blood pressure.

>  <Pathways>
Membrane Transporter/Ion Channel; Metabolism

>  <Target>
AhR agonist;Calcium Channel inhibitor;Mineralocorticoid receptor antagonist

>  <Receptor>
Aryl hydrocarbon receptor;Calcium Channel;Mineralocorticoid receptor

>  <Reference>
1. Weant KA, et al. Pharmacotherapy. 2010 Apr;30(4):405-17.

$$$$
82248-59-7
  Mrv1561503291623562D          

 21 20  0  0  1  0            999 V2000
   -0.0000   -0.2605    0.0000 C   0  0  0  0  0  0  0  0  0  0  0  0
   -0.7145    0.1520    0.0000 O   0  0  0  0  0  0  0  0  0  0  0  0
   -0.7145    0.9770    0.0000 C   0  0  0  0  0  0  0  0  0  0  0  0
   -1.4289    1.3895    0.0000 C   0  0  0  0  0  0  0  0  0  0  0  0
   -1.4289    2.2145    0.0000 C   0  0  0  0  0  0  0  0  0  0  0  0
   -0.7145    2.6270    0.0000 C   0  0  0  0  0  0  0  0  0  0  0  0
    0.0000    2.2145    0.0000 C   0  0  0  0  0  0  0  0  0  0  0  0
    0.0000    1.3895    0.0000 C   0  0  0  0  0  0  0  0  0  0  0  0
   -2.1434    0.9770    0.0000 C   0  0  0  0  0  0  0  0  0  0  0  0
   -0.0000   -1.0855    0.0000 C   0  0  0  0  0  0  0  0  0  0  0  0
    0.7145   -1.4980    0.0000 C   0  0  0  0  0  0  0  0  0  0  0  0
    0.7145   -2.3230    0.0000 C   0  0  0  0  0  0  0  0  0  0  0  0
   -0.0000   -2.7355    0.0000 C   0  0  0  0  0  0  0  0  0  0  0  0
   -0.7145   -2.3230    0.0000 C   0  0  0  0  0  0  0  0  0  0  0  0
   -0.7145   -1.4980    0.0000 C   0  0  0  0  0  0  0  0  0  0  0  0
    0.7145    0.1520    0.0000 C   0  0  0  0  0  0  0  0  0  0  0  0
    1.4289   -0.2605    0.0000 C   0  0  0  0  0  0  0  0  0  0  0  0
    2.1434    0.1520    0.0000 N   0  0  0  0  0  0  0  0  0  0  0  0
    2.8579   -0.2605    0.0000 C   0  0  0  0  0  0  0  0  0  0  0  0
    6.0400    0.0000    0.0000 H   0  3  0  0  0  0  0  0  0  0  0  0
    5.2150    0.0000    0.0000 Cl  0  5  0  0  0  0  0  0  0  0  0  0
  1  2  1  0  0  0  0
  2  3  1  0  0  0  0
  3  4  2  0  0  0  0
  4  5  1  0  0  0  0
  5  6  2  0  0  0  0
  6  7  1  0  0  0  0
  7  8  2  0  0  0  0
  3  8  1  0  0  0  0
  4  9  1  0  0  0  0
  1 10  1  0  0  0  0
 10 11  2  0  0  0  0
 11 12  1  0  0  0  0
 12 13  2  0  0  0  0
 13 14  1  0  0  0  0
 14 15  2  0  0  0  0
 10 15  1  0  0  0  0
  1 16  1  0  0  0  0
 16 17  1  0  0  0  0
 17 18  1  0  0  0  0
 18 19  1  0  0  0  0
M  CHG  2  20   1  21  -1
M  END
>  <Name>
Atomoxetine HCl

>  <CAS>
82248-59-7

>  <Formula>
C17H22ClNO

>  <MolWt>
291.82 

>  <Bioactivity>
Atomoxetine is the first non-stimulant drug approved for the treatment of attention-deficit hyperactivity disorder (ADHD). It is sold in the form of the hydrochloride salt of atomoxetine. This chemical is manufactured and marketed under the brand name Strattera; by Eli Lilly and Company and as a generic Attentin by Torrent Pharmaceuticals. There is currently no generic available within the United States due to patent restrictions.   

>  <Pathways>
Neuroscience

>  <Target>
Dopamine uptake inhibitor;Noradrenaline uptake inhibitor;Serotonin uptake inhibitor

>  <Receptor>
Sodium-dependent dopamine transporter;Sodium-dependent noradrenaline transporter;Sodium-dependent serotonin transporter

>  <Reference>
1. Biederman J, et al. Pediatrics. 2002 Dec;110(6):e75. 

$$$$
T1634
  Mrv1561503291623562D          

 33 35  0  0  0  0            999 V2000
   -0.0000   -1.6500    0.0000 C   0  0  0  0  0  0  0  0  0  0  0  0
   -0.0000   -2.4750    0.0000 C   0  0  0  0  0  0  0  0  0  0  0  0
   -0.7145   -2.8875    0.0000 C   0  0  0  0  0  0  0  0  0  0  0  0
   -1.4289   -2.4750    0.0000 C   0  0  0  0  0  0  0  0  0  0  0  0
   -1.4289   -1.6500    0.0000 C   0  0  0  0  0  0  0  0  0  0  0  0
   -0.7145   -1.2375    0.0000 C   0  0  0  0  0  0  0  0  0  0  0  0
   -2.1434   -1.2375    0.0000 S   0  0  0  0  0  0  0  0  0  0  0  0
   -2.8579   -0.8250    0.0000 N   0  0  0  0  0  0  0  0  0  0  0  0
   -2.8579   -0.0000    0.0000 C   0  0  0  0  0  0  0  0  0  0  0  0
   -3.5724    0.4125    0.0000 N   0  0  0  0  0  0  0  0  0  0  0  0
   -3.5724    1.2375    0.0000 C   0  0  0  0  0  0  0  0  0  0  0  0
   -4.2868    1.6500    0.0000 C   0  0  0  0  0  0  0  0  0  0  0  0
   -4.2868    2.4750    0.0000 C   0  0  0  0  0  0  0  0  0  0  0  0
   -3.5724    2.8875    0.0000 C   0  0  0  0  0  0  0  0  0  0  0  0
   -2.8579    2.4750    0.0000 C   0  0  0  0  0  0  0  0  0  0  0  0
   -2.8579    1.6500    0.0000 C   0  0  0  0  0  0  0  0  0  0  0  0
   -2.1434    0.4125    0.0000 O   0  0  0  0  0  0  0  0  0  0  0  0
   -2.5559   -1.9520    0.0000 O   0  0  0  0  0  0  0  0  0  0  0  0
   -1.7309   -0.5230    0.0000 O   0  0  0  0  0  0  0  0  0  0  0  0
    0.7145   -2.8875    0.0000 C   0  0  0  0  0  0  0  0  0  0  0  0
    1.4289   -2.4750    0.0000 C   0  0  0  0  0  0  0  0  0  0  0  0
    2.1434   -2.8875    0.0000 N   0  0  0  0  0  0  0  0  0  0  0  0
    2.8579   -2.4750    0.0000 C   0  0  0  0  0  0  0  0  0  0  0  0
    2.8579   -1.6500    0.0000 O   0  0  0  0  0  0  0  0  0  0  0  0
    3.5724   -2.8875    0.0000 C   0  0  0  0  0  0  0  0  0  0  0  0
    4.2868   -2.4750    0.0000 C   0  0  0  0  0  0  0  0  0  0  0  0
    5.0013   -2.8875    0.0000 C   0  0  0  0  0  0  0  0  0  0  0  0
    5.0013   -3.7125    0.0000 C   0  0  0  0  0  0  0  0  0  0  0  0
    4.2868   -4.1250    0.0000 C   0  0  0  0  0  0  0  0  0  0  0  0
    3.5724   -3.7125    0.0000 C   0  0  0  0  0  0  0  0  0  0  0  0
    4.2868   -4.9500    0.0000 Cl  0  0  0  0  0  0  0  0  0  0  0  0
    4.2868   -1.6500    0.0000 O   0  0  0  0  0  0  0  0  0  0  0  0
    5.0013   -1.2375    0.0000 C   0  0  0  0  0  0  0  0  0  0  0  0
  1  2  2  0  0  0  0
  2  3  1  0  0  0  0
  3  4  2  0  0  0  0
  4  5  1  0  0  0  0
  5  6  2  0  0  0  0
  1  6  1  0  0  0  0
  5  7  1  0  0  0  0
  7  8  1  0  0  0  0
  8  9  1  0  0  0  0
  9 10  1  0  0  0  0
 10 11  1  0  0  0  0
 11 12  1  0  0  0  0
 12 13  1  0  0  0  0
 13 14  1  0  0  0  0
 14 15  1  0  0  0  0
 15 16  1  0  0  0  0
 11 16  1  0  0  0  0
  9 17  2  0  0  0  0
  7 18  2  0  0  0  0
  7 19  2  0  0  0  0
  2 20  1  0  0  0  0
 20 21  1  0  0  0  0
 21 22  1  0  0  0  0
 22 23  1  0  0  0  0
 23 24  2  0  0  0  0
 23 25  1  0  0  0  0
 25 26  2  0  0  0  0
 26 27  1  0  0  0  0
 27 28  2  0  0  0  0
 28 29  1  0  0  0  0
 29 30  2  0  0  0  0
 25 30  1  0  0  0  0
 29 31  1  0  0  0  0
 26 32  1  0  0  0  0
 32 33  1  0  0  0  0
M  END
>  <Name>
Glyburide

>  <CAS>
10238-21-8

>  <Formula>
C23H28ClN3O5S

>  <MolWt>
494.01 

>  <Bioactivity>
Glyburide is an antidiabetic sulfonylurea derivative with actions similar to those of chlorpropamide.


>  <Pathways>
Membrane Transporter/Ion Channel

>  <Target>
Potassium Channel inhibitor

>  <Receptor>
Potassium Channel;Bile salt export pump

>  <Reference>
1. Pondugula SR, et al. Physiol Genomics. 2006 Jan 12;24(2):114-23. 

$$$$
T1563
  Mrv1561503291623562D          

 20 21  0  0  0  0            999 V2000
    1.1270   -4.9820    0.0000 C   0  0  0  0  0  0  0  0  0  0  0  0
    0.3020   -4.9820    0.0000 C   0  0  0  0  0  0  0  0  0  0  0  0
    0.0470   -4.1974    0.0000 O   0  0  0  0  0  0  0  0  0  0  0  0
    0.7145   -3.7125    0.0000 C   0  0  0  0  0  0  0  0  0  0  0  0
    1.3819   -4.1974    0.0000 C   0  0  0  0  0  0  0  0  0  0  0  0
    0.7145   -2.8875    0.0000 N   0  3  0  0  0  0  0  0  0  0  0  0
    1.4289   -2.4750    0.0000 O   0  0  0  0  0  0  0  0  0  0  0  0
   -0.0000   -2.4750    0.0000 O   0  5  0  0  0  0  0  0  0  0  0  0
   -0.1830   -5.6495    0.0000 C   0  0  0  0  0  0  0  0  0  0  0  0
   -1.0034   -5.5632    0.0000 N   0  0  0  0  0  0  0  0  0  0  0  0
   -1.4884   -6.2307    0.0000 N   0  0  0  0  0  0  0  0  0  0  0  0
   -1.1528   -6.9844    0.0000 C   0  0  0  0  0  0  0  0  0  0  0  0
   -1.6377   -7.6518    0.0000 C   0  0  0  0  0  0  0  0  0  0  0  0
   -1.3022   -8.4055    0.0000 C   0  0  0  0  0  0  0  0  0  0  0  0
   -1.7871   -9.0729    0.0000 C   0  0  0  0  0  0  0  0  0  0  0  0
   -2.6076   -8.9867    0.0000 C   0  0  0  0  0  0  0  0  0  0  0  0
   -3.0925   -9.6541    0.0000 O   0  0  0  0  0  0  0  0  0  0  0  0
   -2.9431   -8.2330    0.0000 C   0  0  0  0  0  0  0  0  0  0  0  0
   -2.4582   -7.5656    0.0000 C   0  0  0  0  0  0  0  0  0  0  0  0
   -0.3323   -7.0706    0.0000 O   0  0  0  0  0  0  0  0  0  0  0  0
  1  2  2  0  0  0  0
  2  3  1  0  0  0  0
  3  4  1  0  0  0  0
  4  5  2  0  0  0  0
  1  5  1  0  0  0  0
  4  6  1  0  0  0  0
  6  7  2  0  0  0  0
  6  8  1  0  0  0  0
  2  9  1  0  0  0  0
  9 10  2  0  0  0  0
 10 11  1  0  0  0  0
 11 12  1  0  0  0  0
 12 13  1  0  0  0  0
 13 14  2  0  0  0  0
 14 15  1  0  0  0  0
 15 16  2  0  0  0  0
 16 17  1  0  0  0  0
 16 18  1  0  0  0  0
 18 19  2  0  0  0  0
 13 19  1  0  0  0  0
 12 20  2  0  0  0  0
M  CHG  2   6   1   8  -1
M  END
>  <Name>
Nifuroxazide

>  <CAS>
965-52-6

>  <Formula>
C12H9N3O5

>  <MolWt>
275.22 

>  <Bioactivity>
Nifuroxazide is a cell-permeable and orally available nitrofuran-based antidiarrheal agent that effectively suppresses the activation of cellular STAT1/3/5 transcription activity .

>  <Pathways>
JAK/STAT Signaling

>  <Target>
STAT inhibitor

>  <Receptor>
STAT1/3/5

>  <Reference>
1. Nelson EA, et al. Blood, 2008, 112(13), 5095-5102.

$$$$
15574-96-6
  Mrv1561503291623562D          

 21 24  0  0  0  0            999 V2000
    4.1817    1.2445    0.0000 C   0  0  0  0  0  0  0  0  0  0  0  0
    4.8090    1.7803    0.0000 C   0  0  0  0  0  0  0  0  0  0  0  0
    4.4933    2.5425    0.0000 S   0  0  0  0  0  0  0  0  0  0  0  0
    3.6708    2.4778    0.0000 C   0  0  0  0  0  0  0  0  0  0  0  0
    3.4782    1.6756    0.0000 C   0  0  0  0  0  0  0  0  0  0  0  0
    2.7310    1.3259    0.0000 C   0  0  0  0  0  0  0  0  0  0  0  0
    1.9917    1.6922    0.0000 C   0  0  0  0  0  0  0  0  0  0  0  0
    1.8172    2.4985    0.0000 C   0  0  0  0  0  0  0  0  0  0  0  0
    2.3387    3.1377    0.0000 C   0  0  0  0  0  0  0  0  0  0  0  0
    3.1637    3.1285    0.0000 C   0  0  0  0  0  0  0  0  0  0  0  0
    1.0316    2.7505    0.0000 C   0  0  0  0  0  0  0  0  0  0  0  0
    0.4206    2.1961    0.0000 C   0  0  0  0  0  0  0  0  0  0  0  0
    0.5952    1.3898    0.0000 C   0  0  0  0  0  0  0  0  0  0  0  0
    1.3807    1.1378    0.0000 C   0  0  0  0  0  0  0  0  0  0  0  0
    2.7218    0.5010    0.0000 C   0  0  0  0  0  0  0  0  0  0  0  0
    3.4316    0.0805    0.0000 C   0  0  0  0  0  0  0  0  0  0  0  0
    3.4224   -0.7444    0.0000 C   0  0  0  0  0  0  0  0  0  0  0  0
    2.7033   -1.1489    0.0000 N   0  0  0  0  0  0  0  0  0  0  0  0
    1.9935   -0.7284    0.0000 C   0  0  0  0  0  0  0  0  0  0  0  0
    2.0027    0.0965    0.0000 C   0  0  0  0  0  0  0  0  0  0  0  0
    2.6941   -1.9739    0.0000 C   0  0  0  0  0  0  0  0  0  0  0  0
  1  2  2  0  0  0  0
  2  3  1  0  0  0  0
  3  4  1  0  0  0  0
  4  5  2  0  0  0  0
  1  5  1  0  0  0  0
  5  6  1  0  0  0  0
  6  7  1  0  0  0  0
  7  8  2  0  0  0  0
  8  9  1  0  0  0  0
  9 10  1  0  0  0  0
  4 10  1  0  0  0  0
  8 11  1  0  0  0  0
 11 12  2  0  0  0  0
 12 13  1  0  0  0  0
 13 14  2  0  0  0  0
  7 14  1  0  0  0  0
  6 15  2  0  0  0  0
 15 16  1  0  0  0  0
 16 17  1  0  0  0  0
 17 18  1  0  0  0  0
 18 19  1  0  0  0  0
 19 20  1  0  0  0  0
 15 20  1  0  0  0  0
 18 21  1  0  0  0  0
M  END
>  <Name>
Pizotifen

>  <CAS>
15574-96-6

>  <Formula>
C19H21NS

>  <MolWt>
295.44 

>  <Bioactivity>
Pizotifen(Pizotyline) is a highly selective 5-HT receptor blocking agent, which is a benzocycloheptane based drug.

>  <Pathways>
Neuroscience

>  <Target>
5-HT Receptor antagonist

>  <Receptor>
5-HT Receptor

>  <Reference>
1. Rahman SM, et al. Pak J Pharm Sci. 2010 Oct;23(4):435-41.

$$$$
6700-34-1
  Mrv1561503291623562D          

 23 23  0  0  1  0            999 V2000
   -0.6040    0.7606    0.0000 C   0  0  0  0  0  0  0  0  0  0  0  0
   -0.6305   -0.0640    0.0000 C   0  0  0  0  0  0  0  0  0  0  0  0
   -1.1939   -1.3129    0.0000 C   0  0  0  0  0  0  0  0  0  0  0  0
   -1.8406   -0.8007    0.0000 N   0  0  0  0  0  0  0  0  0  0  0  0
   -1.9357    0.0188    0.0000 C   0  0  0  0  0  0  0  0  0  0  0  0
   -1.4235    0.6655    0.0000 C   0  0  0  0  0  0  0  0  0  0  0  0
   -2.5613   -1.2022    0.0000 C   0  0  0  0  0  0  0  0  0  0  0  0
   -0.3744   -1.2178    0.0000 C   0  0  0  0  0  0  0  0  0  0  0  0
    0.1647   -0.8029    0.0000 C   0  0  0  0  0  0  0  0  0  0  0  0
    0.0427    0.2484    0.0000 C   0  0  0  0  0  0  0  0  0  0  0  0
    0.4731    0.7136    0.0000 C   0  0  0  0  0  0  0  0  0  0  0  0
    1.4621    0.4131    0.0000 C   0  0  0  0  0  0  0  0  0  0  0  0
    2.1243    0.9052    0.0000 O   0  0  0  0  0  0  0  0  0  0  0  0
    2.0292    1.7247    0.0000 C   0  0  0  0  0  0  0  0  0  0  0  0
    1.5572   -0.4064    0.0000 C   0  0  0  0  0  0  0  0  0  0  0  0
    0.8951   -0.8985    0.0000 C   0  0  0  0  0  0  0  0  0  0  0  0
    0.0703   -0.4992    0.0000 C   0  0  0  0  0  0  0  0  0  0  0  0
    0.7977   -0.1099    0.0000 C   0  0  0  0  0  0  0  0  0  0  0  0
    0.8242    0.7146    0.0000 C   0  0  0  0  0  0  0  0  0  0  0  0
    0.1234    1.1499    0.0000 C   0  0  0  0  0  0  0  0  0  0  0  0
    5.3064    0.0000    0.0000 H   0  3  0  0  0  0  0  0  0  0  0  0
    4.4814    0.0000    0.0000 Br  0  5  0  0  0  0  0  0  0  0  0  0
    0.0000   -2.9629    0.0000 O   0  0  0  0  0  0  0  0  0  0  0  0
  1  2  1  0  0  0  0
  2  3  1  0  0  0  0
  3  4  1  0  0  0  0
  4  5  1  0  0  0  0
  5  6  1  0  0  0  0
  1  6  1  0  0  0  0
  4  7  1  0  0  0  0
  3  8  1  0  0  0  0
  8  9  1  0  0  0  0
  9 10  2  0  0  0  0
  1 10  1  0  0  0  0
 10 11  1  0  0  0  0
 11 12  2  0  0  0  0
 12 13  1  0  0  0  0
 13 14  1  0  0  0  0
 12 15  1  0  0  0  0
 15 16  2  0  0  0  0
  9 16  1  0  0  0  0
  2 17  1  0  0  0  0
 17 18  1  0  0  0  0
 18 19  1  0  0  0  0
 19 20  1  0  0  0  0
  1 20  1  0  0  0  0
M  CHG  2  21   1  22  -1
M  END
>  <Name>
Dextromethorphan HBr monohydrate

>  <CAS>
6700-34-1

>  <Formula>
C18H25NO.HBr.H2O

>  <MolWt>
370.32 

>  <Bioactivity>
Methyl analog of DEXTRORPHAN that shows high affinity binding to several regions of the brain, including the medullary cough center. This compound is an NMDA receptor antagonist (RECEPTORS, N-METHYL-D-ASPARTATE) and acts as a non-competitive channel blocker. It is one of the widely used ANTITUSSIVES, and is also used to study the involvement of glutamate receptors in neurotoxicity.  [

>  <Pathways>
Neuroscience

>  <Target>
AChR antagonist;Opioid Receptor

>  <Receptor>
Neuronal AChR ;Kappa-type opioid receptor, Mu-type opioid receptor, Delta-type opioid receptor

>  <Reference>
1. Thomas BR, et al. J Pharm Biomed Anal. 1994 Jan;12(1):85-90.

$$$$
21829-25-4
  Mrv1561503291623562D          

 25 26  0  0  0  0            999 V2000
    1.4289   -1.6500    0.0000 C   0  0  0  0  0  0  0  0  0  0  0  0
    1.4289   -2.4750    0.0000 C   0  0  0  0  0  0  0  0  0  0  0  0
    0.7145   -2.8875    0.0000 C   0  0  0  0  0  0  0  0  0  0  0  0
   -0.0000   -2.4750    0.0000 C   0  0  0  0  0  0  0  0  0  0  0  0
   -0.0000   -1.6500    0.0000 C   0  0  0  0  0  0  0  0  0  0  0  0
    0.7145   -1.2375    0.0000 C   0  0  0  0  0  0  0  0  0  0  0  0
    0.7145   -0.4125    0.0000 C   0  0  0  0  0  0  0  0  0  0  0  0
    0.0000    0.0000    0.0000 C   0  0  0  0  0  0  0  0  0  0  0  0
    0.0000    0.8250    0.0000 C   0  0  0  0  0  0  0  0  0  0  0  0
    0.7145    1.2375    0.0000 N   0  0  0  0  0  0  0  0  0  0  0  0
    1.4289    0.8250    0.0000 C   0  0  0  0  0  0  0  0  0  0  0  0
    1.4289   -0.0000    0.0000 C   0  0  0  0  0  0  0  0  0  0  0  0
    2.1434   -0.4125    0.0000 C   0  0  0  0  0  0  0  0  0  0  0  0
    2.8579   -0.0000    0.0000 O   0  0  0  0  0  0  0  0  0  0  0  0
    3.5724   -0.4125    0.0000 C   0  0  0  0  0  0  0  0  0  0  0  0
    2.1434   -1.2375    0.0000 O   0  0  0  0  0  0  0  0  0  0  0  0
    2.1434    1.2375    0.0000 C   0  0  0  0  0  0  0  0  0  0  0  0
   -0.7145    1.2375    0.0000 C   0  0  0  0  0  0  0  0  0  0  0  0
   -0.4670   -0.6600    0.0000 C   0  0  0  0  0  0  0  0  0  0  0  0
   -1.4289    0.0000    0.0000 O   0  0  0  0  0  0  0  0  0  0  0  0
   -2.1434   -0.4125    0.0000 C   0  0  0  0  0  0  0  0  0  0  0  0
   -0.4670   -1.4850    0.0000 O   0  0  0  0  0  0  0  0  0  0  0  0
   -0.7145   -1.2375    0.0000 N   0  3  0  0  0  0  0  0  0  0  0  0
   -0.7145   -0.4125    0.0000 O   0  5  0  0  0  0  0  0  0  0  0  0
   -1.4289   -1.6500    0.0000 O   0  0  0  0  0  0  0  0  0  0  0  0
  1  2  2  0  0  0  0
  2  3  1  0  0  0  0
  3  4  2  0  0  0  0
  4  5  1  0  0  0  0
  5  6  2  0  0  0  0
  1  6  1  0  0  0  0
  6  7  1  0  0  0  0
  7  8  1  0  0  0  0
  8  9  2  0  0  0  0
  9 10  1  0  0  0  0
 10 11  1  0  0  0  0
 11 12  2  0  0  0  0
  7 12  1  0  0  0  0
 12 13  1  0  0  0  0
 13 14  1  0  0  0  0
 14 15  1  0  0  0  0
 13 16  2  0  0  0  0
 11 17  1  0  0  0  0
  9 18  1  0  0  0  0
  8 19  1  0  0  0  0
 19 20  1  0  0  0  0
 20 21  1  0  0  0  0
 19 22  2  0  0  0  0
  5 23  1  0  0  0  0
 23 24  1  0  0  0  0
 23 25  2  0  0  0  0
M  CHG  2  23   1  24  -1
M  END
>  <Name>
Nifedipine

>  <CAS>
21829-25-4

>  <Formula>
C17H18N2O6

>  <MolWt>
346.34 

>  <Bioactivity>
Nifedipine(Adalat), a potent vasodilator agent with calcium antagonistic action.

>  <Pathways>
Membrane Transporter/Ion Channel

>  <Target>
Potassium Channel inhibitor; Calmodulin inhibitor;Calcium Channel inhibitor

>  <Receptor>
Potassium Channel ;Calmodulin;Calcium Channel

>  <Reference>
1. Bell DC, et al. J Neurophysiol. 2001 Feb;85(2):816-27. 

$$$$
T0256
  Mrv1561503291623562D          

 20 12  0  0  0  0            999 V2000
   -0.3107   -2.7618    0.0000 Li  0  3  0  0  0  0  0  0  0  0  0  0
    0.4037   -0.6993    0.0000 C   0  0  0  0  0  0  0  0  0  0  0  0
   -0.3107   -1.1118    0.0000 C   0  0  0  0  0  0  0  0  0  0  0  0
   -0.3107   -1.9368    0.0000 O   0  5  0  0  0  0  0  0  0  0  0  0
   -1.0252   -0.6993    0.0000 O   0  0  0  0  0  0  0  0  0  0  0  0
    0.4037    0.1257    0.0000 C   0  0  0  0  0  0  0  0  0  0  0  0
    1.2287    0.1257    0.0000 C   0  0  0  0  0  0  0  0  0  0  0  0
    1.6412   -0.5888    0.0000 O   0  0  0  0  0  0  0  0  0  0  0  0
    1.6412    0.8402    0.0000 O   0  5  0  0  0  0  0  0  0  0  0  0
    0.4037    0.9507    0.0000 O   0  0  0  0  0  0  0  0  0  0  0  0
   -0.4213    0.1257    0.0000 C   0  0  0  0  0  0  0  0  0  0  0  0
   -0.8338    0.8402    0.0000 C   0  0  0  0  0  0  0  0  0  0  0  0
   -0.4213    1.5546    0.0000 O   0  0  0  0  0  0  0  0  0  0  0  0
   -1.6588    0.8402    0.0000 O   0  5  0  0  0  0  0  0  0  0  0  0
    4.4109    0.0000    0.0000 O   0  0  0  0  0  0  0  0  0  0  0  0
    2.0537    1.5546    0.0000 Li  0  3  0  0  0  0  0  0  0  0  0  0
    6.7680    0.0000    0.0000 O   0  0  0  0  0  0  0  0  0  0  0  0
   -2.4838    0.8402    0.0000 Li  0  3  0  0  0  0  0  0  0  0  0  0
    0.0000   -4.4118    0.0000 O   0  0  0  0  0  0  0  0  0  0  0  0
    2.3571   -4.4118    0.0000 O   0  0  0  0  0  0  0  0  0  0  0  0
  2  3  1  0  0  0  0
  3  4  1  0  0  0  0
  3  5  2  0  0  0  0
  2  6  1  0  0  0  0
  6  7  1  0  0  0  0
  7  8  2  0  0  0  0
  7  9  1  0  0  0  0
  6 10  1  0  0  0  0
  6 11  1  0  0  0  0
 11 12  1  0  0  0  0
 12 13  2  0  0  0  0
 12 14  1  0  0  0  0
M  CHG  6   1   1   4  -1   9  -1  14  -1  16   1  18   1
M  END
>  <Name>
Lithium citrate tribasic tetrahydrate

>  <CAS>
6080-58-6

>  <Formula>
C6H5Li3O7

>  <MolWt>
281.98 

>  <Bioactivity>
Lithium Citrate is the active component of Lithium which is a drug used in treatment of psychiatric disease. Lithium Citrate has shown the effects on metabolic and signaling pathways in the brain based on the specific clinical condition and disease model. Lithium Citrate has been reported to use as a mood stabilizer when treating bipolar mood disorders (BD) and reduce the risk of self-harm in BD patient. In addition, Lithium Citrate has been found to be the choice drug in treatment of acute manic episodes. Moreover, Lithium Citrate has been revealed to dissolve uric acid crystals in urine obtained from patients with gout. Besides, Lithium Citrate has been exhibited to have some dose-dependent side-effects. The most of the side-effects of Lithium Citrate is the tendency to inhibit the prostatic acid phosphatase enzyme (PAP), which leading to the accumulation of PAP

>  <Pathways>
Neuroscience; PI3K/Akt/mTOR Signaling

>  <Target>
GluR potentiator; GSK-3 inhibitor

>  <Receptor>
GluR 3;GSK-3B; IMPA

>  <Reference>
1. Oruch R, et al. Eur J Pharmacol. 2014 Jun 30. pii: S0014-2999(14)00493-2

$$$$
T1462
  Mrv1561503291623562D          

 14 14  0  0  1  0            999 V2000
    0.5678    1.1143    0.0000 C   0  0  1  0  0  0  0  0  0  0  0  0
    1.2352    0.6294    0.0000 N   0  0  0  0  0  0  0  0  0  0  0  0
    2.0198    0.8843    0.0000 C   0  0  0  0  0  0  0  0  0  0  0  0
    2.6329    0.3323    0.0000 C   0  0  1  0  0  0  0  0  0  0  0  0
    3.4175    0.5872    0.0000 C   0  0  0  0  0  0  0  0  0  0  0  0
    4.0306    0.0352    0.0000 S   0  0  0  0  0  0  0  0  0  0  0  0
    2.4614   -0.4747    0.0000 C   0  0  0  0  0  0  0  0  0  0  0  0
    2.1913    1.6913    0.0000 O   0  0  0  0  0  0  0  0  0  0  0  0
    0.9803   -0.1553    0.0000 C   0  0  0  0  0  0  0  0  0  0  0  0
    0.1553   -0.1553    0.0000 C   0  0  0  0  0  0  0  0  0  0  0  0
   -0.0997    0.6294    0.0000 C   0  0  0  0  0  0  0  0  0  0  0  0
    0.5678    1.9393    0.0000 C   0  0  0  0  0  0  0  0  0  0  0  0
   -0.1467    2.3518    0.0000 O   0  0  0  0  0  0  0  0  0  0  0  0
    1.2822    2.3518    0.0000 O   0  0  0  0  0  0  0  0  0  0  0  0
  1  2  1  0  0  0  0
  2  3  1  0  0  0  0
  3  4  1  0  0  0  0
  4  5  1  0  0  0  0
  5  6  1  0  0  0  0
  4  7  1  1  0  0  0
  3  8  2  0  0  0  0
  2  9  1  0  0  0  0
  9 10  1  0  0  0  0
 10 11  1  0  0  0  0
  1 11  1  0  0  0  0
  1 12  1  1  0  0  0
 12 13  1  0  0  0  0
 12 14  2  0  0  0  0
M  END
>  <Name>
Captopril

>  <CAS>
62571-86-2

>  <Formula>
C9H15NO3S

>  <MolWt>
217.29 

>  <Bioactivity>
A potent and specific inhibitor of PEPTIDYL-DIPEPTIDASE A. It blocks the conversion of ANGIOTENSIN I to ANGIOTENSIN II, a vasoconstrictor and important regulator of arterial blood pressure. Captopril acts to suppress the RENIN-ANGIOTENSIN SYSTEM and inhibits pressure responses to exogenous angiotensin. 

>  <Pathways>
Endocrinology/ Hormones;Proteases/Proteasome

>  <Target>
Collagenase inhibitor;hydrolase;MMP inhibitor;RAAS inhibitor

>  <Receptor>
72 kDa type IV collagenase;LTA4H;MMP-9;RAAS

>  <Reference>
1. Andujar-Sanchez M, et al. FEBS Lett. 2007 Jul 24;581(18):3449-54.

$$$$
T0195
  Mrv1561503291623562D          

 13 13  0  0  0  0            999 V2000
    0.9803   -0.1553    0.0000 C   0  0  0  0  0  0  0  0  0  0  0  0
    0.1553   -0.1553    0.0000 C   0  0  0  0  0  0  0  0  0  0  0  0
   -0.0997    0.6294    0.0000 N   0  0  0  0  0  0  0  0  0  0  0  0
    0.5678    1.1143    0.0000 C   0  0  0  0  0  0  0  0  0  0  0  0
    1.2352    0.6294    0.0000 N   0  0  0  0  0  0  0  0  0  0  0  0
    0.5678    1.9393    0.0000 C   0  0  0  0  0  0  0  0  0  0  0  0
   -0.8843    0.8843    0.0000 C   0  0  0  0  0  0  0  0  0  0  0  0
   -1.0558    1.6913    0.0000 C   0  0  0  0  0  0  0  0  0  0  0  0
   -1.8405    1.9462    0.0000 C   0  0  0  0  0  0  0  0  0  0  0  0
   -0.4427    2.2433    0.0000 O   0  0  0  0  0  0  0  0  0  0  0  0
   -0.3297   -0.8227    0.0000 N   0  3  0  0  0  0  0  0  0  0  0  0
    0.0059   -1.5764    0.0000 O   0  0  0  0  0  0  0  0  0  0  0  0
   -1.1501   -0.7365    0.0000 O   0  5  0  0  0  0  0  0  0  0  0  0
  1  2  2  0  0  0  0
  2  3  1  0  0  0  0
  3  4  1  0  0  0  0
  4  5  2  0  0  0  0
  1  5  1  0  0  0  0
  4  6  1  0  0  0  0
  3  7  1  0  0  0  0
  7  8  1  0  0  0  0
  8  9  1  0  0  0  0
  8 10  1  0  0  0  0
  2 11  1  0  0  0  0
 11 12  2  0  0  0  0
 11 13  1  0  0  0  0
M  CHG  2  11   1  13  -1
M  END
>  <Name>
Secnidazole

>  <CAS>
3366-95-8

>  <Formula>
C7H11N3O3

>  <MolWt>
185.18 

>  <Bioactivity>
Secnidazole (trade names Flagentyl, Sindose, Secnil) is a nitroimidazole anti-infective. Effectiveness in the treatment of dientamoebiasis has been reported. Secnidazole is structurally related to the commonly used 5-nitroimidazoles metronidazole and tinidazole. 

>  <Pathways>
Microbiology & Virology

>  <Target>
Antiprotozoal

>  <Receptor>
Others

>  <Reference>
1. De Backer, et al. Clinical Microbiology and Infection 16 (5): 470–472.

$$$$
1401-55-4
  Mrv1561503291623562D          

122132  0  0  0  0            999 V2000
    0.7145   -2.8875    0.0000 C   0  0  0  0  0  0  0  0  0  0  0  0
    0.7145   -3.7125    0.0000 C   0  0  0  0  0  0  0  0  0  0  0  0
    1.4289   -4.1250    0.0000 C   0  0  0  0  0  0  0  0  0  0  0  0
    1.4289   -4.9500    0.0000 O   0  0  0  0  0  0  0  0  0  0  0  0
    2.1434   -5.3625    0.0000 C   0  0  0  0  0  0  0  0  0  0  0  0
    2.8579   -4.9500    0.0000 C   0  0  0  0  0  0  0  0  0  0  0  0
    2.8579   -4.1250    0.0000 O   0  0  0  0  0  0  0  0  0  0  0  0
    3.5724   -3.7125    0.0000 C   0  0  0  0  0  0  0  0  0  0  0  0
    4.2868   -4.1250    0.0000 O   0  0  0  0  0  0  0  0  0  0  0  0
    3.5724   -2.8875    0.0000 C   0  0  0  0  0  0  0  0  0  0  0  0
    4.2868   -2.4750    0.0000 C   0  0  0  0  0  0  0  0  0  0  0  0
    4.2868   -1.6500    0.0000 C   0  0  0  0  0  0  0  0  0  0  0  0
    3.5724   -1.2375    0.0000 C   0  0  0  0  0  0  0  0  0  0  0  0
    3.5724   -0.4125    0.0000 O   0  0  0  0  0  0  0  0  0  0  0  0
    2.8579   -1.6500    0.0000 C   0  0  0  0  0  0  0  0  0  0  0  0
    2.8579   -2.4750    0.0000 C   0  0  0  0  0  0  0  0  0  0  0  0
    2.1434   -1.2375    0.0000 O   0  0  0  0  0  0  0  0  0  0  0  0
    5.0013   -1.2375    0.0000 O   0  0  0  0  0  0  0  0  0  0  0  0
    5.0013   -0.4125    0.0000 C   0  0  0  0  0  0  0  0  0  0  0  0
    4.2868   -0.0000    0.0000 O   0  0  0  0  0  0  0  0  0  0  0  0
    5.7158   -0.0000    0.0000 C   0  0  0  0  0  0  0  0  0  0  0  0
    5.7158    0.8250    0.0000 C   0  0  0  0  0  0  0  0  0  0  0  0
    6.4302    1.2375    0.0000 C   0  0  0  0  0  0  0  0  0  0  0  0
    7.1447    0.8250    0.0000 C   0  0  0  0  0  0  0  0  0  0  0  0
    7.8592    1.2375    0.0000 O   0  0  0  0  0  0  0  0  0  0  0  0
    7.1447   -0.0000    0.0000 C   0  0  0  0  0  0  0  0  0  0  0  0
    6.4302   -0.4125    0.0000 C   0  0  0  0  0  0  0  0  0  0  0  0
    7.8592   -0.4125    0.0000 O   0  0  0  0  0  0  0  0  0  0  0  0
    6.4302    2.0625    0.0000 O   0  0  0  0  0  0  0  0  0  0  0  0
    3.5724   -5.3625    0.0000 C   0  0  0  0  0  0  0  0  0  0  0  0
    3.5724   -6.1875    0.0000 O   0  0  0  0  0  0  0  0  0  0  0  0
    2.8579   -6.6000    0.0000 C   0  0  0  0  0  0  0  0  0  0  0  0
    2.1434   -6.1875    0.0000 C   0  0  0  0  0  0  0  0  0  0  0  0
    1.4289   -6.6000    0.0000 O   0  0  0  0  0  0  0  0  0  0  0  0
    1.4289   -7.4250    0.0000 C   0  0  0  0  0  0  0  0  0  0  0  0
    2.1434   -7.8375    0.0000 O   0  0  0  0  0  0  0  0  0  0  0  0
    0.7145   -7.8375    0.0000 C   0  0  0  0  0  0  0  0  0  0  0  0
    0.7145   -8.6625    0.0000 C   0  0  0  0  0  0  0  0  0  0  0  0
   -0.0000   -9.0750    0.0000 C   0  0  0  0  0  0  0  0  0  0  0  0
   -0.7145   -8.6625    0.0000 C   0  0  0  0  0  0  0  0  0  0  0  0
   -1.4289   -9.0750    0.0000 O   0  0  0  0  0  0  0  0  0  0  0  0
   -0.7145   -7.8375    0.0000 C   0  0  0  0  0  0  0  0  0  0  0  0
   -0.0000   -7.4250    0.0000 C   0  0  0  0  0  0  0  0  0  0  0  0
   -1.4289   -7.4250    0.0000 O   0  0  0  0  0  0  0  0  0  0  0  0
   -2.1434   -7.8375    0.0000 C   0  0  0  0  0  0  0  0  0  0  0  0
   -2.1434   -8.6625    0.0000 O   0  0  0  0  0  0  0  0  0  0  0  0
   -2.8579   -7.4250    0.0000 C   0  0  0  0  0  0  0  0  0  0  0  0
   -3.5724   -7.8375    0.0000 C   0  0  0  0  0  0  0  0  0  0  0  0
   -4.2868   -7.4250    0.0000 C   0  0  0  0  0  0  0  0  0  0  0  0
   -4.2868   -6.6000    0.0000 C   0  0  0  0  0  0  0  0  0  0  0  0
   -5.0013   -6.1875    0.0000 O   0  0  0  0  0  0  0  0  0  0  0  0
   -3.5724   -6.1875    0.0000 C   0  0  0  0  0  0  0  0  0  0  0  0
   -2.8579   -6.6000    0.0000 C   0  0  0  0  0  0  0  0  0  0  0  0
   -3.5724   -5.3625    0.0000 O   0  0  0  0  0  0  0  0  0  0  0  0
   -5.0013   -7.8375    0.0000 O   0  0  0  0  0  0  0  0  0  0  0  0
   -0.0000   -9.9000    0.0000 O   0  0  0  0  0  0  0  0  0  0  0  0
    2.8579   -7.4250    0.0000 C   0  0  0  0  0  0  0  0  0  0  0  0
    3.5724   -7.8375    0.0000 O   0  0  0  0  0  0  0  0  0  0  0  0
    3.5724   -8.6625    0.0000 C   0  0  0  0  0  0  0  0  0  0  0  0
    2.8579   -9.0750    0.0000 O   0  0  0  0  0  0  0  0  0  0  0  0
    4.2868   -9.0750    0.0000 C   0  0  0  0  0  0  0  0  0  0  0  0
    5.0013   -8.6625    0.0000 C   0  0  0  0  0  0  0  0  0  0  0  0
    5.7158   -9.0750    0.0000 C   0  0  0  0  0  0  0  0  0  0  0  0
    5.7158   -9.9000    0.0000 C   0  0  0  0  0  0  0  0  0  0  0  0
    6.4302  -10.3125    0.0000 O   0  0  0  0  0  0  0  0  0  0  0  0
    5.0013  -10.3125    0.0000 C   0  0  0  0  0  0  0  0  0  0  0  0
    4.2868   -9.9000    0.0000 C   0  0  0  0  0  0  0  0  0  0  0  0
    5.0013  -11.1375    0.0000 O   0  0  0  0  0  0  0  0  0  0  0  0
    5.7158  -11.5500    0.0000 C   0  0  0  0  0  0  0  0  0  0  0  0
    6.4302  -11.1375    0.0000 O   0  0  0  0  0  0  0  0  0  0  0  0
    5.7158  -12.3750    0.0000 C   0  0  0  0  0  0  0  0  0  0  0  0
    6.4302  -12.7875    0.0000 C   0  0  0  0  0  0  0  0  0  0  0  0
    6.4302  -13.6125    0.0000 C   0  0  0  0  0  0  0  0  0  0  0  0
    5.7158  -14.0250    0.0000 C   0  0  0  0  0  0  0  0  0  0  0  0
    5.7158  -14.8500    0.0000 O   0  0  0  0  0  0  0  0  0  0  0  0
    5.0013  -13.6125    0.0000 C   0  0  0  0  0  0  0  0  0  0  0  0
    5.0013  -12.7875    0.0000 C   0  0  0  0  0  0  0  0  0  0  0  0
    4.2868  -14.0250    0.0000 O   0  0  0  0  0  0  0  0  0  0  0  0
    7.1447  -14.0250    0.0000 O   0  0  0  0  0  0  0  0  0  0  0  0
    6.4302   -8.6625    0.0000 O   0  0  0  0  0  0  0  0  0  0  0  0
    4.2868   -4.9500    0.0000 O   0  0  0  0  0  0  0  0  0  0  0  0
    5.0013   -5.3625    0.0000 C   0  0  0  0  0  0  0  0  0  0  0  0
    5.0013   -6.1875    0.0000 O   0  0  0  0  0  0  0  0  0  0  0  0
    5.7158   -4.9500    0.0000 C   0  0  0  0  0  0  0  0  0  0  0  0
    6.4302   -5.3625    0.0000 C   0  0  0  0  0  0  0  0  0  0  0  0
    7.1447   -4.9500    0.0000 C   0  0  0  0  0  0  0  0  0  0  0  0
    7.1447   -4.1250    0.0000 C   0  0  0  0  0  0  0  0  0  0  0  0
    7.8592   -3.7125    0.0000 O   0  0  0  0  0  0  0  0  0  0  0  0
    6.4302   -3.7125    0.0000 C   0  0  0  0  0  0  0  0  0  0  0  0
    5.7158   -4.1250    0.0000 C   0  0  0  0  0  0  0  0  0  0  0  0
    6.4302   -2.8875    0.0000 O   0  0  0  0  0  0  0  0  0  0  0  0
    7.8592   -5.3625    0.0000 O   0  0  0  0  0  0  0  0  0  0  0  0
    7.8592   -6.1875    0.0000 C   0  0  0  0  0  0  0  0  0  0  0  0
    7.1447   -6.6000    0.0000 O   0  0  0  0  0  0  0  0  0  0  0  0
    8.5737   -6.6000    0.0000 C   0  0  0  0  0  0  0  0  0  0  0  0
    9.2881   -6.1875    0.0000 C   0  0  0  0  0  0  0  0  0  0  0  0
   10.0026   -6.6000    0.0000 C   0  0  0  0  0  0  0  0  0  0  0  0
   10.0026   -7.4250    0.0000 C   0  0  0  0  0  0  0  0  0  0  0  0
   10.7171   -7.8375    0.0000 O   0  0  0  0  0  0  0  0  0  0  0  0
    9.2881   -7.8375    0.0000 C   0  0  0  0  0  0  0  0  0  0  0  0
    8.5737   -7.4250    0.0000 C   0  0  0  0  0  0  0  0  0  0  0  0
    9.2881   -8.6625    0.0000 O   0  0  0  0  0  0  0  0  0  0  0  0
   10.7171   -6.1875    0.0000 O   0  0  0  0  0  0  0  0  0  0  0  0
    2.1434   -3.7125    0.0000 O   0  0  0  0  0  0  0  0  0  0  0  0
   -0.0000   -4.1250    0.0000 C   0  0  0  0  0  0  0  0  0  0  0  0
   -0.7145   -3.7125    0.0000 C   0  0  0  0  0  0  0  0  0  0  0  0
   -1.4289   -4.1250    0.0000 O   0  0  0  0  0  0  0  0  0  0  0  0
   -0.7145   -2.8875    0.0000 C   0  0  0  0  0  0  0  0  0  0  0  0
   -0.0000   -2.4750    0.0000 C   0  0  0  0  0  0  0  0  0  0  0  0
   -0.0000   -1.6500    0.0000 O   0  0  0  0  0  0  0  0  0  0  0  0
    0.7145   -1.2375    0.0000 C   0  0  0  0  0  0  0  0  0  0  0  0
    1.4289   -1.6500    0.0000 O   0  0  0  0  0  0  0  0  0  0  0  0
    0.7145   -0.4125    0.0000 C   0  0  0  0  0  0  0  0  0  0  0  0
    0.0000    0.0000    0.0000 C   0  0  0  0  0  0  0  0  0  0  0  0
    0.0000    0.8250    0.0000 C   0  0  0  0  0  0  0  0  0  0  0  0
    0.7145    1.2375    0.0000 C   0  0  0  0  0  0  0  0  0  0  0  0
    0.7145    2.0625    0.0000 O   0  0  0  0  0  0  0  0  0  0  0  0
    1.4289    0.8250    0.0000 C   0  0  0  0  0  0  0  0  0  0  0  0
    1.4289   -0.0000    0.0000 C   0  0  0  0  0  0  0  0  0  0  0  0
    2.1434    1.2375    0.0000 O   0  0  0  0  0  0  0  0  0  0  0  0
   -0.7145    1.2375    0.0000 O   0  0  0  0  0  0  0  0  0  0  0  0
   -1.4289   -2.4750    0.0000 O   0  0  0  0  0  0  0  0  0  0  0  0
  1  2  2  0  0  0  0
  2  3  1  0  0  0  0
  3  4  1  0  0  0  0
  4  5  1  0  0  0  0
  5  6  1  0  0  0  0
  6  7  1  0  0  0  0
  7  8  1  0  0  0  0
  8  9  2  0  0  0  0
  8 10  1  0  0  0  0
 10 11  2  0  0  0  0
 11 12  1  0  0  0  0
 12 13  2  0  0  0  0
 13 14  1  0  0  0  0
 13 15  1  0  0  0  0
 15 16  2  0  0  0  0
 10 16  1  0  0  0  0
 15 17  1  0  0  0  0
 12 18  1  0  0  0  0
 18 19  1  0  0  0  0
 19 20  2  0  0  0  0
 19 21  1  0  0  0  0
 21 22  2  0  0  0  0
 22 23  1  0  0  0  0
 23 24  2  0  0  0  0
 24 25  1  0  0  0  0
 24 26  1  0  0  0  0
 26 27  2  0  0  0  0
 21 27  1  0  0  0  0
 26 28  1  0  0  0  0
 23 29  1  0  0  0  0
  6 30  1  0  0  0  0
 30 31  1  0  0  0  0
 31 32  1  0  0  0  0
 32 33  1  0  0  0  0
  5 33  1  0  0  0  0
 33 34  1  0  0  0  0
 34 35  1  0  0  0  0
 35 36  2  0  0  0  0
 35 37  1  0  0  0  0
 37 38  2  0  0  0  0
 38 39  1  0  0  0  0
 39 40  2  0  0  0  0
 40 41  1  0  0  0  0
 40 42  1  0  0  0  0
 42 43  2  0  0  0  0
 37 43  1  0  0  0  0
 42 44  1  0  0  0  0
 44 45  1  0  0  0  0
 45 46  2  0  0  0  0
 45 47  1  0  0  0  0
 47 48  2  0  0  0  0
 48 49  1  0  0  0  0
 49 50  2  0  0  0  0
 50 51  1  0  0  0  0
 50 52  1  0  0  0  0
 52 53  2  0  0  0  0
 47 53  1  0  0  0  0
 52 54  1  0  0  0  0
 49 55  1  0  0  0  0
 39 56  1  0  0  0  0
 32 57  1  0  0  0  0
 57 58  1  0  0  0  0
 58 59  1  0  0  0  0
 59 60  2  0  0  0  0
 59 61  1  0  0  0  0
 61 62  2  0  0  0  0
 62 63  1  0  0  0  0
 63 64  2  0  0  0  0
 64 65  1  0  0  0  0
 64 66  1  0  0  0  0
 66 67  2  0  0  0  0
 61 67  1  0  0  0  0
 66 68  1  0  0  0  0
 68 69  1  0  0  0  0
 69 70  2  0  0  0  0
 69 71  1  0  0  0  0
 71 72  2  0  0  0  0
 72 73  1  0  0  0  0
 73 74  2  0  0  0  0
 74 75  1  0  0  0  0
 74 76  1  0  0  0  0
 76 77  2  0  0  0  0
 71 77  1  0  0  0  0
 76 78  1  0  0  0  0
 73 79  1  0  0  0  0
 63 80  1  0  0  0  0
 30 81  1  0  0  0  0
 81 82  1  0  0  0  0
 82 83  2  0  0  0  0
 82 84  1  0  0  0  0
 84 85  2  0  0  0  0
 85 86  1  0  0  0  0
 86 87  2  0  0  0  0
 87 88  1  0  0  0  0
 87 89  1  0  0  0  0
 89 90  2  0  0  0  0
 84 90  1  0  0  0  0
 89 91  1  0  0  0  0
 86 92  1  0  0  0  0
 92 93  1  0  0  0  0
 93 94  2  0  0  0  0
 93 95  1  0  0  0  0
 95 96  2  0  0  0  0
 96 97  1  0  0  0  0
 97 98  2  0  0  0  0
 98 99  1  0  0  0  0
 98100  1  0  0  0  0
100101  2  0  0  0  0
 95101  1  0  0  0  0
100102  1  0  0  0  0
 97103  1  0  0  0  0
  3104  2  0  0  0  0
  2105  1  0  0  0  0
105106  2  0  0  0  0
106107  1  0  0  0  0
106108  1  0  0  0  0
108109  2  0  0  0  0
  1109  1  0  0  0  0
109110  1  0  0  0  0
110111  1  0  0  0  0
111112  2  0  0  0  0
111113  1  0  0  0  0
113114  2  0  0  0  0
114115  1  0  0  0  0
115116  2  0  0  0  0
116117  1  0  0  0  0
116118  1  0  0  0  0
118119  2  0  0  0  0
113119  1  0  0  0  0
118120  1  0  0  0  0
115121  1  0  0  0  0
108122  1  0  0  0  0
M  END
>  <Name>
Glycerite

>  <CAS>
1401-55-4

>  <Formula>
C76H52O46

>  <MolWt>
1701.20 

>  <Bioactivity>
Polyphenolic compounds with molecular weights of around 500-3000 daltons and containing enough hydroxyl groups (1-2 per 100 MW) for effective cross linking of other compounds (ASTRINGENTS). The two main types are HYDROLYZABLE TANNINS and CONDENSED TANNINS. Historically, the term has applied to many compounds and plant extracts able to render skin COLLAGEN impervious to degradation. The word tannin derives from the Celtic word for OAK TREE which was used for leather processing. 

>  <Pathways>
Others

>  <Target>
Others

>  <Receptor>
Others

>  <Reference>
1. JENKINS JT. Am J Surg. 1947 Oct;74(4):428-30. 

$$$$
T0250
  Mrv1561503291623562D          

 26 27  0  0  0  0            999 V2000
    0.4125    0.0000    0.0000 H   0  3  0  0  0  0  0  0  0  0  0  0
    5.6275    0.4733    0.0000 C   0  0  0  0  0  0  0  0  0  0  0  0
    6.3420    0.0608    0.0000 C   0  0  0  0  0  0  0  0  0  0  0  0
    7.0565    0.4733    0.0000 N   0  0  0  0  0  0  0  0  0  0  0  0
    7.0565    1.2983    0.0000 C   0  0  0  0  0  0  0  0  0  0  0  0
    6.6440    2.0127    0.0000 C   0  0  0  0  0  0  0  0  0  0  0  0
    7.4690    2.0127    0.0000 C   0  0  0  0  0  0  0  0  0  0  0  0
    7.7709    0.0608    0.0000 C   0  0  0  0  0  0  0  0  0  0  0  0
    7.7709   -0.7642    0.0000 C   0  0  0  0  0  0  0  0  0  0  0  0
    7.0565   -1.1767    0.0000 C   0  0  0  0  0  0  0  0  0  0  0  0
    7.0565   -2.0017    0.0000 O   0  0  0  0  0  0  0  0  0  0  0  0
    6.3420   -0.7642    0.0000 C   0  0  0  0  0  0  0  0  0  0  0  0
    5.6275   -1.1767    0.0000 C   0  0  0  0  0  0  0  0  0  0  0  0
    4.9131   -0.7642    0.0000 C   0  0  0  0  0  0  0  0  0  0  0  0
    4.9131    0.0608    0.0000 C   0  0  0  0  0  0  0  0  0  0  0  0
    4.1986    0.4733    0.0000 N   0  0  0  0  0  0  0  0  0  0  0  0
    3.4841    0.0608    0.0000 C   0  0  0  0  0  0  0  0  0  0  0  0
    2.7696    0.4733    0.0000 C   0  0  0  0  0  0  0  0  0  0  0  0
    2.7696    1.2983    0.0000 N   0  0  0  0  0  0  0  0  0  0  0  0
    3.4841    1.7108    0.0000 C   0  0  0  0  0  0  0  0  0  0  0  0
    4.1986    1.2983    0.0000 C   0  0  0  0  0  0  0  0  0  0  0  0
    4.1986   -1.1767    0.0000 F   0  0  0  0  0  0  0  0  0  0  0  0
    8.4854   -1.1767    0.0000 C   0  0  0  0  0  0  0  0  0  0  0  0
    9.1999   -0.7642    0.0000 O   0  0  0  0  0  0  0  0  0  0  0  0
    8.4854   -2.0017    0.0000 O   0  0  0  0  0  0  0  0  0  0  0  0
   -0.4125    0.0000    0.0000 Cl  0  5  0  0  0  0  0  0  0  0  0  0
  2  3  2  0  0  0  0
  3  4  1  0  0  0  0
  4  5  1  0  0  0  0
  5  6  1  0  0  0  0
  6  7  1  0  0  0  0
  5  7  1  0  0  0  0
  4  8  1  0  0  0  0
  8  9  2  0  0  0  0
  9 10  1  0  0  0  0
 10 11  2  0  0  0  0
 10 12  1  0  0  0  0
  3 12  1  0  0  0  0
 12 13  2  0  0  0  0
 13 14  1  0  0  0  0
 14 15  2  0  0  0  0
  2 15  1  0  0  0  0
 15 16  1  0  0  0  0
 16 17  1  0  0  0  0
 17 18  1  0  0  0  0
 18 19  1  0  0  0  0
 19 20  1  0  0  0  0
 20 21  1  0  0  0  0
 16 21  1  0  0  0  0
 14 22  1  0  0  0  0
  9 23  1  0  0  0  0
 23 24  1  0  0  0  0
 23 25  2  0  0  0  0
M  CHG  2   1   1  26  -1
M  END
>  <Name>
Ciprofloxacin HCl

>  <CAS>
93107-08-5

>  <Formula>
C17H18FN3O3 HCl

>  <MolWt>
367.80 

>  <Bioactivity>
A broad-spectrum antimicrobial carboxyfluoroquinoline.

>  <Pathways>
DNA Damage/DNA Repair

>  <Target>
Topoisomerase inhibitor; DNA gyrase inhibitor

>  <Receptor>
DNA topoisomerase II, IV;DNA gyrase

>  <Reference>
1. Lee JK, et al. Microbiol Immunol. 2005;49(7):647-53. 

$$$$
54063-53-5
  Mrv1561503291623562D          

 27 26  0  0  0  0            999 V2000
    0.4125    0.0000    0.0000 H   0  3  0  0  0  0  0  0  0  0  0  0
    3.0127   -1.0890    0.0000 C   0  0  0  0  0  0  0  0  0  0  0  0
    3.7272   -0.6765    0.0000 C   0  0  0  0  0  0  0  0  0  0  0  0
    4.4416   -1.0890    0.0000 C   0  0  0  0  0  0  0  0  0  0  0  0
    4.4416   -1.9140    0.0000 C   0  0  0  0  0  0  0  0  0  0  0  0
    3.7272   -2.3265    0.0000 C   0  0  0  0  0  0  0  0  0  0  0  0
    3.0127   -1.9140    0.0000 C   0  0  0  0  0  0  0  0  0  0  0  0
    5.1561   -0.6765    0.0000 O   0  0  0  0  0  0  0  0  0  0  0  0
    5.8706   -1.0890    0.0000 C   0  0  0  0  0  0  0  0  0  0  0  0
    6.5850   -0.6765    0.0000 C   0  0  0  0  0  0  0  0  0  0  0  0
    6.5850    0.1485    0.0000 O   0  0  0  0  0  0  0  0  0  0  0  0
    7.2995   -1.0890    0.0000 C   0  0  0  0  0  0  0  0  0  0  0  0
    8.0140   -0.6765    0.0000 N   0  0  0  0  0  0  0  0  0  0  0  0
    8.7285   -1.0890    0.0000 C   0  0  0  0  0  0  0  0  0  0  0  0
    9.4429   -0.6765    0.0000 C   0  0  0  0  0  0  0  0  0  0  0  0
   10.1574   -1.0890    0.0000 C   0  0  0  0  0  0  0  0  0  0  0  0
    3.7272    0.1485    0.0000 C   0  0  0  0  0  0  0  0  0  0  0  0
    3.0127    0.5610    0.0000 O   0  0  0  0  0  0  0  0  0  0  0  0
    4.4416    0.5610    0.0000 C   0  0  0  0  0  0  0  0  0  0  0  0
    4.4416    1.3860    0.0000 C   0  0  0  0  0  0  0  0  0  0  0  0
    3.7272    1.7985    0.0000 C   0  0  0  0  0  0  0  0  0  0  0  0
    3.0127    1.3860    0.0000 C   0  0  0  0  0  0  0  0  0  0  0  0
    2.2982    1.7985    0.0000 C   0  0  0  0  0  0  0  0  0  0  0  0
    2.2982    2.6235    0.0000 C   0  0  0  0  0  0  0  0  0  0  0  0
    3.0127    3.0360    0.0000 C   0  0  0  0  0  0  0  0  0  0  0  0
    3.7272    2.6235    0.0000 C   0  0  0  0  0  0  0  0  0  0  0  0
   -0.4125    0.0000    0.0000 Cl  0  5  0  0  0  0  0  0  0  0  0  0
  2  3  2  0  0  0  0
  3  4  1  0  0  0  0
  4  5  2  0  0  0  0
  5  6  1  0  0  0  0
  6  7  2  0  0  0  0
  2  7  1  0  0  0  0
  4  8  1  0  0  0  0
  8  9  1  0  0  0  0
  9 10  1  0  0  0  0
 10 11  1  0  0  0  0
 10 12  1  0  0  0  0
 12 13  1  0  0  0  0
 13 14  1  0  0  0  0
 14 15  1  0  0  0  0
 15 16  1  0  0  0  0
  3 17  1  0  0  0  0
 17 18  2  0  0  0  0
 17 19  1  0  0  0  0
 19 20  1  0  0  0  0
 20 21  1  0  0  0  0
 21 22  2  0  0  0  0
 22 23  1  0  0  0  0
 23 24  2  0  0  0  0
 24 25  1  0  0  0  0
 25 26  2  0  0  0  0
 21 26  1  0  0  0  0
M  CHG  2   1   1  27  -1
M  END
>  <Name>
Propafenone

>  <CAS>
54063-53-5

>  <Formula>
C21H27NO3

>  <MolWt>
341.44 

>  <Bioactivity>
An antiarrhythmia agent that is particularly effective in ventricular arrhythmias. It also has weak beta-blocking activity.  

>  <Pathways>
Membrane Transporter/Ion Channel

>  <Target>
Potassium Channel inhibitor;Sodium Channel inhibitor

>  <Receptor>
MRP1;Potassium Channel ;Sodium channel

>  <Reference>
1. Overington JP, et al. Nat Rev Drug Discov. 2006 Dec;5(12):993-6.

$$$$
313-06-4
  Mrv1561503291623562D          

 29 33  0  0  1  0            999 V2000
    0.7475   -2.9779    0.0000 C   0  0  1  0  0  0  0  0  0  0  0  0
    1.5596   -2.8327    0.0000 C   0  0  1  0  0  0  0  0  0  0  0  0
    2.0914   -3.4634    0.0000 C   0  0  1  0  0  0  0  0  0  0  0  0
    2.9035   -3.3182    0.0000 C   0  0  0  0  0  0  0  0  0  0  0  0
    3.1838   -2.5422    0.0000 C   0  0  0  0  0  0  0  0  0  0  0  0
    3.9960   -2.3970    0.0000 C   0  0  0  0  0  0  0  0  0  0  0  0
    4.5278   -3.0277    0.0000 C   0  0  0  0  0  0  0  0  0  0  0  0
    5.3399   -2.8825    0.0000 O   0  0  0  0  0  0  0  0  0  0  0  0
    4.2475   -3.8037    0.0000 C   0  0  0  0  0  0  0  0  0  0  0  0
    3.4354   -3.9489    0.0000 C   0  0  0  0  0  0  0  0  0  0  0  0
    2.6520   -1.9115    0.0000 C   0  0  0  0  0  0  0  0  0  0  0  0
    1.8399   -2.0567    0.0000 C   0  0  0  0  0  0  0  0  0  0  0  0
    1.8111   -4.2393    0.0000 C   0  0  0  0  0  0  0  0  0  0  0  0
    0.9990   -4.3845    0.0000 C   0  0  0  0  0  0  0  0  0  0  0  0
    0.4672   -3.7538    0.0000 C   0  0  2  0  0  0  0  0  0  0  0  0
   -0.3574   -3.7270    0.0000 C   0  0  1  0  0  0  0  0  0  0  0  0
   -0.8637   -4.3783    0.0000 O   0  0  0  0  0  0  0  0  0  0  0  0
   -0.5528   -5.1425    0.0000 C   0  0  0  0  0  0  0  0  0  0  0  0
   -1.0592   -5.7938    0.0000 C   0  0  0  0  0  0  0  0  0  0  0  0
   -0.7483   -6.5580    0.0000 C   0  0  0  0  0  0  0  0  0  0  0  0
   -1.2547   -7.2093    0.0000 C   0  0  0  0  0  0  0  0  0  0  0  0
   -1.0253   -8.0018    0.0000 C   0  0  0  0  0  0  0  0  0  0  0  0
   -1.7082   -8.4648    0.0000 C   0  0  0  0  0  0  0  0  0  0  0  0
   -2.3595   -7.9585    0.0000 C   0  0  0  0  0  0  0  0  0  0  0  0
   -2.0792   -7.1825    0.0000 C   0  0  0  0  0  0  0  0  0  0  0  0
    0.2644   -5.2554    0.0000 O   0  0  0  0  0  0  0  0  0  0  0  0
   -0.5867   -2.9345    0.0000 C   0  0  0  0  0  0  0  0  0  0  0  0
    0.0962   -2.4715    0.0000 C   0  0  0  0  0  0  0  0  0  0  0  0
    0.1073   -4.4962    0.0000 C   0  0  0  0  0  0  0  0  0  0  0  0
  1  2  1  0  0  0  0
  2  3  1  0  0  0  0
  3  4  1  0  0  0  0
  4  5  2  0  0  0  0
  5  6  1  0  0  0  0
  6  7  2  0  0  0  0
  7  8  1  0  0  0  0
  7  9  1  0  0  0  0
  9 10  2  0  0  0  0
  4 10  1  0  0  0  0
  5 11  1  0  0  0  0
 11 12  1  0  0  0  0
  2 12  1  6  0  0  0
  3 13  1  1  0  0  0
 13 14  1  0  0  0  0
 14 15  1  0  0  0  0
  1 15  1  0  0  0  0
 15 16  1  0  0  0  0
 16 17  1  1  0  0  0
 17 18  1  0  0  0  0
 18 19  1  0  0  0  0
 19 20  1  0  0  0  0
 20 21  1  0  0  0  0
 21 22  1  0  0  0  0
 22 23  1  0  0  0  0
 23 24  1  0  0  0  0
 24 25  1  0  0  0  0
 21 25  1  0  0  0  0
 18 26  2  0  0  0  0
 16 27  1  0  0  0  0
 27 28  1  0  0  0  0
  1 28  1  1  0  0  0
 15 29  1  1  0  0  0
M  END
>  <Name>
Depofemin

>  <CAS>
313-06-4

>  <Formula>
C26H36O3

>  <MolWt>
396.58 

>  <Bioactivity>
Estradiol cypionate is the 17 ?-cyclopentylpropinate ester of estradiol, which inhibits ET-1 synthesis via estrogen receptor.

>  <Pathways>
Endocrinology/ Hormones

>  <Target>
Estrogen/Progestogen Receptor agonist

>  <Receptor>
Estrogen/progestogen Receptor

>  <Reference>
1. Oriowo MA, et al. Contraception, 1980, 21(4), 415-424.

$$$$
81110-73-8
  Mrv1561503291623562D          

 27 28  0  0  0  0            999 V2000
    6.0197    0.6887    0.0000 C   0  0  0  0  0  0  0  0  0  0  0  0
    5.4796    1.3123    0.0000 C   0  0  0  0  0  0  0  0  0  0  0  0
    4.6695    1.1564    0.0000 C   0  0  0  0  0  0  0  0  0  0  0  0
    4.3994    0.3768    0.0000 C   0  0  0  0  0  0  0  0  0  0  0  0
    3.5893    0.2209    0.0000 C   0  0  0  0  0  0  0  0  0  0  0  0
    3.3193   -0.5586    0.0000 N   0  0  0  0  0  0  0  0  0  0  0  0
    2.5091   -0.7145    0.0000 C   0  0  0  0  0  0  0  0  0  0  0  0
    2.2391   -1.4941    0.0000 C   0  0  0  0  0  0  0  0  0  0  0  0
    1.4289   -1.6500    0.0000 O   0  0  0  0  0  0  0  0  0  0  0  0
    1.1589   -2.4296    0.0000 C   0  0  0  0  0  0  0  0  0  0  0  0
    0.3488   -2.5855    0.0000 C   0  0  0  0  0  0  0  0  0  0  0  0
    0.0787   -3.3650    0.0000 C   0  0  0  0  0  0  0  0  0  0  0  0
   -0.7314   -3.5209    0.0000 C   0  0  0  0  0  0  0  0  0  0  0  0
   -1.2715   -2.8973    0.0000 C   0  0  0  0  0  0  0  0  0  0  0  0
   -1.0015   -2.1177    0.0000 C   0  0  0  0  0  0  0  0  0  0  0  0
   -0.1913   -1.9618    0.0000 C   0  0  0  0  0  0  0  0  0  0  0  0
    2.7792   -2.1177    0.0000 O   0  0  0  0  0  0  0  0  0  0  0  0
    3.0492    0.8446    0.0000 O   0  0  0  0  0  0  0  0  0  0  0  0
    4.9395   -0.2468    0.0000 C   0  0  0  0  0  0  0  0  0  0  0  0
    4.6695   -1.0264    0.0000 S   0  0  0  0  0  0  0  0  0  0  0  0
    5.2096   -1.6500    0.0000 C   0  0  0  0  0  0  0  0  0  0  0  0
    6.0197   -1.4941    0.0000 C   0  0  0  0  0  0  0  0  0  0  0  0
    4.9395   -2.4296    0.0000 O   0  0  0  0  0  0  0  0  0  0  0  0
    5.7497    2.0918    0.0000 C   0  0  0  0  0  0  0  0  0  0  0  0
    6.5598    2.2478    0.0000 C   0  0  0  0  0  0  0  0  0  0  0  0
    7.0999    1.6241    0.0000 C   0  0  0  0  0  0  0  0  0  0  0  0
    6.8298    0.8446    0.0000 C   0  0  0  0  0  0  0  0  0  0  0  0
  1  2  2  0  0  0  0
  2  3  1  0  0  0  0
  3  4  1  0  0  0  0
  4  5  1  0  0  0  0
  5  6  1  0  0  0  0
  6  7  1  0  0  0  0
  7  8  1  0  0  0  0
  8  9  1  0  0  0  0
  9 10  1  0  0  0  0
 10 11  1  0  0  0  0
 11 12  2  0  0  0  0
 12 13  1  0  0  0  0
 13 14  2  0  0  0  0
 14 15  1  0  0  0  0
 15 16  2  0  0  0  0
 11 16  1  0  0  0  0
  8 17  2  0  0  0  0
  5 18  2  0  0  0  0
  4 19  1  0  0  0  0
 19 20  1  0  0  0  0
 20 21  1  0  0  0  0
 21 22  1  0  0  0  0
 21 23  2  0  0  0  0
  2 24  1  0  0  0  0
 24 25  2  0  0  0  0
 25 26  1  0  0  0  0
 26 27  2  0  0  0  0
  1 27  1  0  0  0  0
M  END
>  <Name>
Racecadotril

>  <CAS>
81110-73-8

>  <Formula>
C21H23NO4S

>  <MolWt>
385.49 

>  <Bioactivity>
Racecadotril, also known as acetorphan, is an antidiarrheal drug which acts as a peripherally acting enkephalinase inhibitor.

>  <Pathways>
Enzyme

>  <Target>
Endopeptidase inhibitor

>  <Receptor>
Endopeptidase

>  <Reference>
1. Matheson AJ, Noble S. Drugs. 2000 Apr;59(4):829-35; discussion 836-7.

$$$$
119356-77-3
  Mrv1561503291623562D          

 25 25  0  0  1  0            999 V2000
   -1.4168    0.5902    0.0000 C   0  0  0  0  0  0  0  0  0  0  0  0
   -1.8293   -0.1243    0.0000 N   0  0  0  0  0  0  0  0  0  0  0  0
   -1.4168   -0.8387    0.0000 C   0  0  0  0  0  0  0  0  0  0  0  0
   -2.6543   -0.1243    0.0000 C   0  0  0  0  0  0  0  0  0  0  0  0
   -1.8293    1.3047    0.0000 C   0  0  0  0  0  0  0  0  0  0  0  0
   -2.6543    1.3047    0.0000 C   0  0  0  0  0  0  0  0  0  0  0  0
   -3.0668    2.0192    0.0000 C   0  0  0  0  0  0  0  0  0  0  0  0
   -2.6543    2.7336    0.0000 C   0  0  0  0  0  0  0  0  0  0  0  0
   -1.8293    2.7336    0.0000 C   0  0  0  0  0  0  0  0  0  0  0  0
   -1.4168    2.0192    0.0000 C   0  0  0  0  0  0  0  0  0  0  0  0
   -0.5918    0.5902    0.0000 C   0  0  0  0  0  0  0  0  0  0  0  0
   -0.1793   -0.1243    0.0000 C   0  0  0  0  0  0  0  0  0  0  0  0
    0.6457   -0.1243    0.0000 O   0  0  0  0  0  0  0  0  0  0  0  0
    1.0582   -0.8387    0.0000 C   0  0  0  0  0  0  0  0  0  0  0  0
    0.6457   -1.5532    0.0000 C   0  0  0  0  0  0  0  0  0  0  0  0
    1.0582   -2.2677    0.0000 C   0  0  0  0  0  0  0  0  0  0  0  0
    1.8832   -2.2677    0.0000 C   0  0  0  0  0  0  0  0  0  0  0  0
    2.2957   -1.5532    0.0000 C   0  0  0  0  0  0  0  0  0  0  0  0
    1.8832   -0.8387    0.0000 C   0  0  0  0  0  0  0  0  0  0  0  0
    2.2957   -0.1243    0.0000 C   0  0  0  0  0  0  0  0  0  0  0  0
    3.1207   -0.1243    0.0000 C   0  0  0  0  0  0  0  0  0  0  0  0
    3.5332   -0.8387    0.0000 C   0  0  0  0  0  0  0  0  0  0  0  0
    3.1207   -1.5532    0.0000 C   0  0  0  0  0  0  0  0  0  0  0  0
    6.7153    0.0000    0.0000 H   0  3  0  0  0  0  0  0  0  0  0  0
    5.8903    0.0000    0.0000 Cl  0  5  0  0  0  0  0  0  0  0  0  0
  1  2  1  0  0  0  0
  2  3  1  0  0  0  0
  2  4  1  0  0  0  0
  1  5  1  0  0  0  0
  5  6  2  0  0  0  0
  6  7  1  0  0  0  0
  7  8  2  0  0  0  0
  8  9  1  0  0  0  0
  9 10  2  0  0  0  0
  5 10  1  0  0  0  0
  1 11  1  0  0  0  0
 11 12  1  0  0  0  0
 12 13  1  0  0  0  0
 13 14  1  0  0  0  0
 14 15  2  0  0  0  0
 15 16  1  0  0  0  0
 16 17  2  0  0  0  0
 17 18  1  0  0  0  0
 18 19  2  0  0  0  0
 14 19  1  0  0  0  0
 19 20  1  0  0  0  0
 20 21  2  0  0  0  0
 21 22  1  0  0  0  0
 22 23  2  0  0  0  0
 18 23  1  0  0  0  0
M  CHG  2  24   1  25  -1
M  END
>  <Name>
Dapoxetine HCl

>  <CAS>
119356-77-3

>  <Formula>
C21H23NO

>  <MolWt>
305.41 

>  <Bioactivity>
Dapoxetine is a selective serotonin reuptake inhibitor, for the treatment of premature ejaculation.

>  <Pathways>
Neuroscience

>  <Target>
5-HT Receptor

>  <Receptor>
5-HT1A;5-HT1B;5-HT2C

>  <Reference>
1. Wang WF, et al. Chin Med J (Engl). 2007 Jun 5;120(11):1000-6. 

$$$$
54-31-9
  Mrv1561503291623562D          

 21 22  0  0  0  0            999 V2000
   -2.7512    5.5902    0.0000 C   0  0  0  0  0  0  0  0  0  0  0  0
   -2.7512    4.7652    0.0000 C   0  0  0  0  0  0  0  0  0  0  0  0
   -3.4656    4.3527    0.0000 C   0  0  0  0  0  0  0  0  0  0  0  0
   -4.1801    4.7652    0.0000 C   0  0  0  0  0  0  0  0  0  0  0  0
   -4.1801    5.5902    0.0000 C   0  0  0  0  0  0  0  0  0  0  0  0
   -3.4656    6.0027    0.0000 C   0  0  0  0  0  0  0  0  0  0  0  0
   -3.4656    6.8277    0.0000 S   0  0  0  0  0  0  0  0  0  0  0  0
   -3.4656    7.6527    0.0000 N   0  0  0  0  0  0  0  0  0  0  0  0
   -4.2906    6.8277    0.0000 O   0  0  0  0  0  0  0  0  0  0  0  0
   -2.6406    6.8277    0.0000 O   0  0  0  0  0  0  0  0  0  0  0  0
   -4.8946    6.0027    0.0000 Cl  0  0  0  0  0  0  0  0  0  0  0  0
   -3.4656    3.5277    0.0000 N   0  0  0  0  0  0  0  0  0  0  0  0
   -2.7512    3.1152    0.0000 C   0  0  0  0  0  0  0  0  0  0  0  0
   -2.7512    2.2902    0.0000 C   0  0  0  0  0  0  0  0  0  0  0  0
   -2.0837    1.8053    0.0000 C   0  0  0  0  0  0  0  0  0  0  0  0
   -2.3387    1.0206    0.0000 C   0  0  0  0  0  0  0  0  0  0  0  0
   -3.1637    1.0206    0.0000 C   0  0  0  0  0  0  0  0  0  0  0  0
   -3.4186    1.8053    0.0000 O   0  0  0  0  0  0  0  0  0  0  0  0
   -2.0367    4.3527    0.0000 C   0  0  0  0  0  0  0  0  0  0  0  0
   -2.0367    3.5277    0.0000 O   0  0  0  0  0  0  0  0  0  0  0  0
   -1.3222    4.7652    0.0000 O   0  0  0  0  0  0  0  0  0  0  0  0
  1  2  2  0  0  0  0
  2  3  1  0  0  0  0
  3  4  2  0  0  0  0
  4  5  1  0  0  0  0
  5  6  2  0  0  0  0
  1  6  1  0  0  0  0
  6  7  1  0  0  0  0
  7  8  1  0  0  0  0
  7  9  2  0  0  0  0
  7 10  2  0  0  0  0
  5 11  1  0  0  0  0
  3 12  1  0  0  0  0
 12 13  1  0  0  0  0
 13 14  1  0  0  0  0
 14 15  2  0  0  0  0
 15 16  1  0  0  0  0
 16 17  2  0  0  0  0
 17 18  1  0  0  0  0
 14 18  1  0  0  0  0
  2 19  1  0  0  0  0
 19 20  1  0  0  0  0
 19 21  2  0  0  0  0
M  END
>  <Name>
Furosemide

>  <CAS>
54-31-9

>  <Formula>
C12H11ClN2O5S

>  <MolWt>
330.74 

>  <Bioactivity>
Furosemide is a loop diuretic inhibitor of Na+/2Cl-/K+ (NKCC) cotransporter. Furosemide acts as a non-competitive antagonist at GABAA receptors with ~ 100-fold greater selectivity for ?6-containing receptors than ?1-containing receptors.


>  <Pathways>
Membrane Transporter/Ion Channel

>  <Target>
NKCC cotransporter inhibitor

>  <Receptor>
NKCC cotransportor

>  <Reference>
1. Vormfelde SV, et al. Clin Pharmacol Ther. 2007 Sep;82(3):300-9. 

$$$$
147-24-0
  Mrv1561503291623562D          

 21 20  0  0  0  0            999 V2000
    0.4125    0.0000    0.0000 H   0  3  0  0  0  0  0  0  0  0  0  0
    3.7272   -0.9987    0.0000 C   0  0  0  0  0  0  0  0  0  0  0  0
    4.4416   -0.5862    0.0000 C   0  0  0  0  0  0  0  0  0  0  0  0
    4.4416    0.2388    0.0000 C   0  0  0  0  0  0  0  0  0  0  0  0
    5.1561    0.6513    0.0000 O   0  0  0  0  0  0  0  0  0  0  0  0
    5.8706    0.2388    0.0000 C   0  0  0  0  0  0  0  0  0  0  0  0
    6.5850    0.6513    0.0000 C   0  0  0  0  0  0  0  0  0  0  0  0
    7.2995    0.2388    0.0000 N   0  0  0  0  0  0  0  0  0  0  0  0
    8.0140    0.6513    0.0000 C   0  0  0  0  0  0  0  0  0  0  0  0
    7.2995   -0.5862    0.0000 C   0  0  0  0  0  0  0  0  0  0  0  0
    3.7272    0.6513    0.0000 C   0  0  0  0  0  0  0  0  0  0  0  0
    3.0127    0.2388    0.0000 C   0  0  0  0  0  0  0  0  0  0  0  0
    2.2982    0.6513    0.0000 C   0  0  0  0  0  0  0  0  0  0  0  0
    2.2982    1.4763    0.0000 C   0  0  0  0  0  0  0  0  0  0  0  0
    3.0127    1.8888    0.0000 C   0  0  0  0  0  0  0  0  0  0  0  0
    3.7272    1.4763    0.0000 C   0  0  0  0  0  0  0  0  0  0  0  0
    5.1561   -0.9987    0.0000 C   0  0  0  0  0  0  0  0  0  0  0  0
    5.1561   -1.8237    0.0000 C   0  0  0  0  0  0  0  0  0  0  0  0
    4.4416   -2.2362    0.0000 C   0  0  0  0  0  0  0  0  0  0  0  0
    3.7272   -1.8237    0.0000 C   0  0  0  0  0  0  0  0  0  0  0  0
   -0.4125    0.0000    0.0000 Cl  0  5  0  0  0  0  0  0  0  0  0  0
  2  3  2  0  0  0  0
  3  4  1  0  0  0  0
  4  5  1  0  0  0  0
  5  6  1  0  0  0  0
  6  7  1  0  0  0  0
  7  8  1  0  0  0  0
  8  9  1  0  0  0  0
  8 10  1  0  0  0  0
  4 11  1  0  0  0  0
 11 12  2  0  0  0  0
 12 13  1  0  0  0  0
 13 14  2  0  0  0  0
 14 15  1  0  0  0  0
 15 16  2  0  0  0  0
 11 16  1  0  0  0  0
  3 17  1  0  0  0  0
 17 18  2  0  0  0  0
 18 19  1  0  0  0  0
 19 20  2  0  0  0  0
  2 20  1  0  0  0  0
M  CHG  2   1   1  21  -1
M  END
>  <Name>
Diphenhydramine HCl

>  <CAS>
147-24-0

>  <Formula>
C17H22ClNO

>  <MolWt>
291.82 

>  <Bioactivity>
A histamine H1 antagonist used as an antiemetic, antitussive, for dermatoses and pruritus, for hypersensitivity reactions, as a hypnotic, an antiparkinson, and as an ingredient in common cold preparations. It has some undesired antimuscarinic and sedative effects.  

>  <Pathways>
Neuroscience

>  <Target>
Histamine Receptor

>  <Receptor>
Histamine H1 receptor

>  <Reference>
1. Piao H, et al. Vascul Pharmacol. 2007 Apr;46(4):260-70.

$$$$
T0334
  Mrv1561503291623562D          

 25 27  0  0  0  0            999 V2000
   -1.4289   -2.4750    0.0000 C   0  0  0  0  0  0  0  0  0  0  0  0
   -1.4289   -1.6500    0.0000 C   0  0  0  0  0  0  0  0  0  0  0  0
   -2.1434   -1.2375    0.0000 C   0  0  0  0  0  0  0  0  0  0  0  0
   -2.8579   -1.6500    0.0000 C   0  0  0  0  0  0  0  0  0  0  0  0
   -2.9441   -2.4705    0.0000 S   0  0  0  0  0  0  0  0  0  0  0  0
   -3.7511   -2.6420    0.0000 C   0  0  0  0  0  0  0  0  0  0  0  0
   -4.0866   -3.3957    0.0000 O   0  0  0  0  0  0  0  0  0  0  0  0
   -4.1636   -1.9275    0.0000 N   0  0  0  0  0  0  0  0  0  0  0  0
   -3.6116   -1.3144    0.0000 C   0  0  0  0  0  0  0  0  0  0  0  0
   -3.7831   -0.5075    0.0000 O   0  0  0  0  0  0  0  0  0  0  0  0
   -0.7145   -1.2375    0.0000 C   0  0  0  0  0  0  0  0  0  0  0  0
   -0.0000   -1.6500    0.0000 C   0  0  0  0  0  0  0  0  0  0  0  0
   -0.0000   -2.4750    0.0000 C   0  0  0  0  0  0  0  0  0  0  0  0
   -0.7145   -2.8875    0.0000 C   0  0  0  0  0  0  0  0  0  0  0  0
    0.7145   -2.8875    0.0000 O   0  0  0  0  0  0  0  0  0  0  0  0
    1.4289   -2.4750    0.0000 C   0  0  0  0  0  0  0  0  0  0  0  0
    2.1434   -2.8875    0.0000 C   0  0  0  0  0  0  0  0  0  0  0  0
    2.8579   -2.4750    0.0000 N   0  0  0  0  0  0  0  0  0  0  0  0
    3.5724   -2.8875    0.0000 C   0  0  0  0  0  0  0  0  0  0  0  0
    4.2868   -2.4750    0.0000 C   0  0  0  0  0  0  0  0  0  0  0  0
    5.0013   -2.8875    0.0000 C   0  0  0  0  0  0  0  0  0  0  0  0
    5.0013   -3.7125    0.0000 C   0  0  0  0  0  0  0  0  0  0  0  0
    4.2868   -4.1250    0.0000 C   0  0  0  0  0  0  0  0  0  0  0  0
    3.5724   -3.7125    0.0000 N   0  0  0  0  0  0  0  0  0  0  0  0
    2.8579   -1.6500    0.0000 C   0  0  0  0  0  0  0  0  0  0  0  0
  1  2  2  0  0  0  0
  2  3  1  0  0  0  0
  3  4  1  0  0  0  0
  4  5  1  0  0  0  0
  5  6  1  0  0  0  0
  6  7  2  0  0  0  0
  6  8  1  0  0  0  0
  8  9  1  0  0  0  0
  4  9  1  0  0  0  0
  9 10  2  0  0  0  0
  2 11  1  0  0  0  0
 11 12  2  0  0  0  0
 12 13  1  0  0  0  0
 13 14  2  0  0  0  0
  1 14  1  0  0  0  0
 13 15  1  0  0  0  0
 15 16  1  0  0  0  0
 16 17  1  0  0  0  0
 17 18  1  0  0  0  0
 18 19  1  0  0  0  0
 19 20  2  0  0  0  0
 20 21  1  0  0  0  0
 21 22  2  0  0  0  0
 22 23  1  0  0  0  0
 23 24  2  0  0  0  0
 19 24  1  0  0  0  0
 18 25  1  0  0  0  0
M  END
>  <Name>
Rosiglitazone

>  <CAS>
122320-73-4

>  <Formula>
C18H19N3O3S

>  <MolWt>
357.43 

>  <Bioactivity>
Rosiglitazone is an anti-diabetic drug in the thiazolidinedione class of drugs. It is marketed by the pharmaceutical company GlaxoSmithKline as a stand-alone drug (Avandia) and in combination with metformin (Avandamet) or with glimepiride (Avandaryl). Like other thiazolidinediones, the mechanism of action of rosiglitazone is by activation of the intracellular receptor class of the peroxisome proliferator-activated receptors (PPARs), specifically PPAR?. Rosiglitazone is a selective ligand of PPAR?, and has no PPAR?-binding action. Apart from its effect on insulin resistance, it appears to have an anti-inflammatory effect: nuclear factor kappa-B (NF?B) levels fall and inhibitor (I?B) levels increase in patients on rosiglitazone. Recent research has suggested that rosiglitazone may also be of benefit to a subset of patients with Alzheimer's disease not expressing the ApoE4 allele. This is the subject of a clinical trial currently underway. 

>  <Pathways>
Metabolism

>  <Target>
PPAR agonist

>  <Receptor>
PPAR

>  <Reference>
1. Pfützner A, et al. Vasc Health Risk Manag. 2007; 3(2):211-20.

$$$$
T0819
  Mrv1561503291623562D          

 59 62  0  0  1  0            999 V2000
    4.4215   -1.5983    0.0000 C   0  0  2  0  0  0  0  0  0  0  0  0
    3.7070   -2.0108    0.0000 O   0  0  0  0  0  0  0  0  0  0  0  0
    3.7070   -2.8358    0.0000 C   0  0  0  0  0  0  0  0  0  0  0  0
    4.4215   -3.2483    0.0000 O   0  0  0  0  0  0  0  0  0  0  0  0
    4.4215   -4.0733    0.0000 C   0  0  0  0  0  0  0  0  0  0  0  0
    3.7070   -4.4858    0.0000 C   0  0  0  0  0  0  0  0  0  0  0  0
    3.7070   -5.3108    0.0000 O   0  0  0  0  0  0  0  0  0  0  0  0
    4.4215   -5.7233    0.0000 C   0  0  0  0  0  0  0  0  0  0  0  0
    4.4215   -6.5483    0.0000 O   0  0  0  0  0  0  0  0  0  0  0  0
    5.1360   -6.9608    0.0000 C   0  0  0  0  0  0  0  0  0  0  0  0
    5.8504   -6.5483    0.0000 C   0  0  0  0  0  0  0  0  0  0  0  0
    6.5649   -6.9608    0.0000 O   0  0  0  0  0  0  0  0  0  0  0  0
    5.8504   -5.7233    0.0000 C   0  0  0  0  0  0  0  0  0  0  0  0
    6.6629   -5.8666    0.0000 O   0  0  0  0  0  0  0  0  0  0  0  0
    5.1360   -5.3108    0.0000 C   0  0  0  0  0  0  0  0  0  0  0  0
    6.1326   -4.9481    0.0000 C   0  0  0  0  0  0  0  0  0  0  0  0
    5.1360   -7.7858    0.0000 C   0  0  0  0  0  0  0  0  0  0  0  0
    2.9925   -4.0733    0.0000 C   0  0  0  0  0  0  0  0  0  0  0  0
    2.2781   -4.4858    0.0000 N   0  0  0  0  0  0  0  0  0  0  0  0
    1.5636   -4.0733    0.0000 C   0  0  0  0  0  0  0  0  0  0  0  0
    2.2781   -5.3108    0.0000 C   0  0  0  0  0  0  0  0  0  0  0  0
    2.9925   -3.2483    0.0000 C   0  0  0  0  0  0  0  0  0  0  0  0
    2.2781   -2.8358    0.0000 O   0  0  0  0  0  0  0  0  0  0  0  0
    5.1360   -4.4858    0.0000 C   0  0  0  0  0  0  0  0  0  0  0  0
    4.1665   -0.8137    0.0000 C   0  0  1  0  0  0  0  0  0  0  0  0
    3.6145   -1.4268    0.0000 O   0  0  0  0  0  0  0  0  0  0  0  0
    2.8075   -1.2553    0.0000 C   0  0  0  0  0  0  0  0  0  0  0  0
    3.3596   -0.6422    0.0000 C   0  0  2  0  0  0  0  0  0  0  0  0
    2.5526   -0.8137    0.0000 O   0  0  0  0  0  0  0  0  0  0  0  0
    3.1046    0.1425    0.0000 C   0  0  0  0  0  0  0  0  0  0  0  0
    3.6567    0.7556    0.0000 C   0  0  0  0  0  0  0  0  0  0  0  0
    3.4017    1.5402    0.0000 O   0  0  0  0  0  0  0  0  0  0  0  0
    3.9538    2.1533    0.0000 C   0  0  1  0  0  0  0  0  0  0  0  0
    4.7607    1.9817    0.0000 C   0  0  0  0  0  0  0  0  0  0  0  0
    5.0157    1.1971    0.0000 C   0  0  0  0  0  0  0  0  0  0  0  0
    5.8226    1.0256    0.0000 C   0  0  0  0  0  0  0  0  0  0  0  0
    6.0776    0.2410    0.0000 C   0  0  0  0  0  0  0  0  0  0  0  0
    6.8846    0.0694    0.0000 C   0  0  0  0  0  0  0  0  0  0  0  0
    7.1395   -0.7152    0.0000 C   0  0  2  0  0  0  0  0  0  0  0  0
    7.9465   -0.8867    0.0000 O   0  0  0  0  0  0  0  0  0  0  0  0
    8.4985   -0.2736    0.0000 C   0  0  0  0  0  0  0  0  0  0  0  0
    8.2436    0.5110    0.0000 O   0  0  0  0  0  0  0  0  0  0  0  0
    8.7956    1.1241    0.0000 C   0  0  0  0  0  0  0  0  0  0  0  0
    9.6026    0.9526    0.0000 C   0  0  0  0  0  0  0  0  0  0  0  0
   10.1546    1.5657    0.0000 N   0  0  0  0  0  0  0  0  0  0  0  0
    9.8997    2.3503    0.0000 C   0  0  0  0  0  0  0  0  0  0  0  0
   10.9616    1.3941    0.0000 C   0  0  0  0  0  0  0  0  0  0  0  0
    9.8575    0.1680    0.0000 C   0  0  0  0  0  0  0  0  0  0  0  0
    9.3055   -0.4451    0.0000 C   0  0  0  0  0  0  0  0  0  0  0  0
    8.5406    1.9087    0.0000 C   0  0  0  0  0  0  0  0  0  0  0  0
    6.5875   -1.3283    0.0000 C   0  0  1  0  0  0  0  0  0  0  0  0
    5.7805   -1.1567    0.0000 C   0  0  0  0  0  0  0  0  0  0  0  0
    5.2285   -1.7698    0.0000 C   0  0  2  0  0  0  0  0  0  0  0  0
    5.4834   -2.5545    0.0000 C   0  0  0  0  0  0  0  0  0  0  0  0
    4.9314   -3.1676    0.0000 C   0  0  0  0  0  0  0  0  0  0  0  0
    5.1863   -3.9522    0.0000 O   0  0  0  0  0  0  0  0  0  0  0  0
    6.8424   -2.1129    0.0000 C   0  0  0  0  0  0  0  0  0  0  0  0
    3.6988    2.9379    0.0000 C   0  0  0  0  0  0  0  0  0  0  0  0
    4.4636    0.5840    0.0000 O   0  0  0  0  0  0  0  0  0  0  0  0
  1  2  1  6  0  0  0
  2  3  1  0  0  0  0
  3  4  1  0  0  0  0
  4  5  1  0  0  0  0
  5  6  1  0  0  0  0
  6  7  1  0  0  0  0
  7  8  1  0  0  0  0
  8  9  1  0  0  0  0
  9 10  1  0  0  0  0
 10 11  1  0  0  0  0
 11 12  1  0  0  0  0
 11 13  1  0  0  0  0
 13 14  1  0  0  0  0
 13 15  1  0  0  0  0
  8 15  1  0  0  0  0
 13 16  1  0  0  0  0
 10 17  1  0  0  0  0
  6 18  1  0  0  0  0
 18 19  1  0  0  0  0
 19 20  1  0  0  0  0
 19 21  1  0  0  0  0
 18 22  1  0  0  0  0
  3 22  1  0  0  0  0
 22 23  1  0  0  0  0
  5 24  1  0  0  0  0
  1 25  1  0  0  0  0
 25 26  1  6  0  0  0
 26 27  1  0  0  0  0
 25 28  1  0  0  0  0
 28 29  1  6  0  0  0
 28 30  1  0  0  0  0
 30 31  1  0  0  0  0
 31 32  1  0  0  0  0
 32 33  1  0  0  0  0
 33 34  1  0  0  0  0
 34 35  1  0  0  0  0
 35 36  2  0  0  0  0
 36 37  1  0  0  0  0
 37 38  2  0  0  0  0
 38 39  1  0  0  0  0
 39 40  1  6  0  0  0
 40 41  1  0  0  0  0
 41 42  1  0  0  0  0
 42 43  1  0  0  0  0
 43 44  1  0  0  0  0
 44 45  1  0  0  0  0
 45 46  1  0  0  0  0
 45 47  1  0  0  0  0
 44 48  1  0  0  0  0
 48 49  1  0  0  0  0
 41 49  1  0  0  0  0
 43 50  1  0  0  0  0
 39 51  1  0  0  0  0
 51 52  1  0  0  0  0
 52 53  1  0  0  0  0
  1 53  1  0  0  0  0
 53 54  1  6  0  0  0
 54 55  1  0  0  0  0
 55 56  2  0  0  0  0
 51 57  1  6  0  0  0
 33 58  1  6  0  0  0
 31 59  2  0  0  0  0
M  END
>  <Name>
Spiramycin

>  <CAS>
8025-81-8

>  <Formula>
C43H74N2O14

>  <MolWt>
843.07 

>  <Bioactivity>
A macrolide antibiotic produced by Streptomyces ambofaciens. The drug is effective against gram-positive aerobic pathogens, N. gonorrhoeae, and staphylococci. It is used to treat infections caused by bacteria and Toxoplasma gondii.  

>  <Pathways>
Microbiology & Virology

>  <Target>
Antibiotic

>  <Receptor>
Others

>  <Reference>
1. Poulsen SM, et al. J Mol Biol, 2000, 304(3), 471-481.

$$$$
32780-64-6
  Mrv1561503291623562D          

 26 25  0  0  0  0            999 V2000
    0.4125    0.0000    0.0000 H   0  3  0  0  0  0  0  0  0  0  0  0
    4.3238    0.2234    0.0000 C   0  0  0  0  0  0  0  0  0  0  0  0
    5.0382   -0.1891    0.0000 C   0  0  0  0  0  0  0  0  0  0  0  0
    5.7527    0.2234    0.0000 C   0  0  0  0  0  0  0  0  0  0  0  0
    5.7527    1.0484    0.0000 O   0  0  0  0  0  0  0  0  0  0  0  0
    6.4672   -0.1891    0.0000 C   0  0  0  0  0  0  0  0  0  0  0  0
    7.1817    0.2234    0.0000 N   0  0  0  0  0  0  0  0  0  0  0  0
    7.8961   -0.1891    0.0000 C   0  0  0  0  0  0  0  0  0  0  0  0
    8.6106    0.2234    0.0000 C   0  0  0  0  0  0  0  0  0  0  0  0
    9.3251   -0.1891    0.0000 C   0  0  0  0  0  0  0  0  0  0  0  0
   10.0395    0.2234    0.0000 C   0  0  0  0  0  0  0  0  0  0  0  0
   10.0395    1.0484    0.0000 C   0  0  0  0  0  0  0  0  0  0  0  0
   10.7540    1.4609    0.0000 C   0  0  0  0  0  0  0  0  0  0  0  0
   11.4685    1.0484    0.0000 C   0  0  0  0  0  0  0  0  0  0  0  0
   11.4685    0.2234    0.0000 C   0  0  0  0  0  0  0  0  0  0  0  0
   10.7540   -0.1891    0.0000 C   0  0  0  0  0  0  0  0  0  0  0  0
    7.8961   -1.0141    0.0000 C   0  0  0  0  0  0  0  0  0  0  0  0
    5.0382   -1.0141    0.0000 C   0  0  0  0  0  0  0  0  0  0  0  0
    4.3238   -1.4266    0.0000 C   0  0  0  0  0  0  0  0  0  0  0  0
    3.6093   -1.0141    0.0000 C   0  0  0  0  0  0  0  0  0  0  0  0
    3.6093   -0.1891    0.0000 C   0  0  0  0  0  0  0  0  0  0  0  0
    2.8948    0.2234    0.0000 C   0  0  0  0  0  0  0  0  0  0  0  0
    2.1804   -0.1891    0.0000 O   0  0  0  0  0  0  0  0  0  0  0  0
    2.8948    1.0484    0.0000 N   0  0  0  0  0  0  0  0  0  0  0  0
    2.8948   -1.4266    0.0000 O   0  0  0  0  0  0  0  0  0  0  0  0
   -0.4125    0.0000    0.0000 Cl  0  5  0  0  0  0  0  0  0  0  0  0
  2  3  2  0  0  0  0
  3  4  1  0  0  0  0
  4  5  1  0  0  0  0
  4  6  1  0  0  0  0
  6  7  1  0  0  0  0
  7  8  1  0  0  0  0
  8  9  1  0  0  0  0
  9 10  1  0  0  0  0
 10 11  1  0  0  0  0
 11 12  2  0  0  0  0
 12 13  1  0  0  0  0
 13 14  2  0  0  0  0
 14 15  1  0  0  0  0
 15 16  2  0  0  0  0
 11 16  1  0  0  0  0
  8 17  1  0  0  0  0
  3 18  1  0  0  0  0
 18 19  2  0  0  0  0
 19 20  1  0  0  0  0
 20 21  2  0  0  0  0
  2 21  1  0  0  0  0
 21 22  1  0  0  0  0
 22 23  2  0  0  0  0
 22 24  1  0  0  0  0
 20 25  1  0  0  0  0
M  CHG  2   1   1  26  -1
M  END
>  <Name>
Labetalol HCl

>  <CAS>
32780-64-6

>  <Formula>
C19H25ClN2O3

>  <MolWt>
364.87 

>  <Bioactivity>
A salicylamide derivative that is a non-cardioselective blocker of BETA-ADRENERGIC RECEPTORS and ALPHA-1 ADRENERGIC RECEPTORS.

>  <Pathways>
GPCR/G Protein

>  <Target>
Adrenergic Receptor antagonist

>  <Receptor>
Adrenergic Receptor

>  <Reference>
1. Riva E, et al. Br J Pharmacol. 1991 Dec;104(4):823-8.

$$$$
121-25-5
  Mrv1561503291623562D          

 19 19  0  0  0  0            999 V2000
    0.1588    0.2292    0.0000 C   0  0  0  0  0  0  0  0  0  0  0  0
   -0.5557   -0.1833    0.0000 C   0  0  0  0  0  0  0  0  0  0  0  0
   -0.5557   -1.0083    0.0000 C   0  0  0  0  0  0  0  0  0  0  0  0
    0.1588   -1.4208    0.0000 N   0  3  0  0  0  0  0  0  0  0  0  0
    0.8732   -1.0083    0.0000 C   0  0  0  0  0  0  0  0  0  0  0  0
    1.5877   -1.4208    0.0000 C   0  0  0  0  0  0  0  0  0  0  0  0
    1.5877   -2.2458    0.0000 C   0  0  0  0  0  0  0  0  0  0  0  0
    0.8732   -2.6583    0.0000 C   0  0  0  0  0  0  0  0  0  0  0  0
    0.1588   -2.2458    0.0000 C   0  0  0  0  0  0  0  0  0  0  0  0
    0.8732   -0.1833    0.0000 C   0  0  0  0  0  0  0  0  0  0  0  0
   -1.2702    0.2292    0.0000 C   0  0  0  0  0  0  0  0  0  0  0  0
   -1.2702    1.0542    0.0000 N   0  0  0  0  0  0  0  0  0  0  0  0
   -0.5557    1.4667    0.0000 C   0  0  0  0  0  0  0  0  0  0  0  0
    0.1588    1.0542    0.0000 N   0  0  0  0  0  0  0  0  0  0  0  0
   -0.5557    2.2917    0.0000 C   0  0  0  0  0  0  0  0  0  0  0  0
    0.1588    2.7042    0.0000 C   0  0  0  0  0  0  0  0  0  0  0  0
    0.1588    3.5292    0.0000 C   0  0  0  0  0  0  0  0  0  0  0  0
   -1.9846   -0.1833    0.0000 N   0  0  0  0  0  0  0  0  0  0  0  0
    3.9449    0.0000    0.0000 Cl  0  5  0  0  0  0  0  0  0  0  0  0
  1  2  2  0  0  0  0
  2  3  1  0  0  0  0
  3  4  1  0  0  0  0
  4  5  2  0  0  0  0
  5  6  1  0  0  0  0
  6  7  2  0  0  0  0
  7  8  1  0  0  0  0
  8  9  2  0  0  0  0
  4  9  1  0  0  0  0
  5 10  1  0  0  0  0
  2 11  1  0  0  0  0
 11 12  2  0  0  0  0
 12 13  1  0  0  0  0
 13 14  2  0  0  0  0
  1 14  1  0  0  0  0
 13 15  1  0  0  0  0
 15 16  1  0  0  0  0
 16 17  1  0  0  0  0
 11 18  1  0  0  0  0
M  CHG  2   4   1  19  -1
M  END
>  <Name>
Amprolium

>  <CAS>
121-25-5

>  <Formula>
C14H19N4.Cl

>  <MolWt>
278.79 

>  <Bioactivity>
Veterinary coccidiostat that interferes with thiamine metabolism. It may cause thiamine deficiency.

>  <Pathways>
Metabolism

>  <Target>
Thiamin antagonist

>  <Receptor>
thiamine

>  <Reference>
1. Iqbal A, et al. J Parasit Dis. 2013 Apr;37(1):88-93. 

$$$$
61-25-6
  Mrv1561503291623562D          

 27 27  0  0  0  0            999 V2000
    0.4125    0.0000    0.0000 H   0  3  0  0  0  0  0  0  0  0  0  0
    4.9131    0.5280    0.0000 C   0  0  0  0  0  0  0  0  0  0  0  0
    5.6275    0.9405    0.0000 C   0  0  0  0  0  0  0  0  0  0  0  0
    5.6275    1.7655    0.0000 C   0  0  0  0  0  0  0  0  0  0  0  0
    4.9131    2.1780    0.0000 C   0  0  0  0  0  0  0  0  0  0  0  0
    4.1986    1.7655    0.0000 C   0  0  0  0  0  0  0  0  0  0  0  0
    4.1986    0.9405    0.0000 C   0  0  0  0  0  0  0  0  0  0  0  0
    3.4841    0.5280    0.0000 O   0  0  0  0  0  0  0  0  0  0  0  0
    3.4841   -0.2970    0.0000 C   0  0  0  0  0  0  0  0  0  0  0  0
    3.4841    2.1780    0.0000 O   0  0  0  0  0  0  0  0  0  0  0  0
    2.7696    1.7655    0.0000 C   0  0  0  0  0  0  0  0  0  0  0  0
    6.3420    2.1780    0.0000 C   0  0  0  0  0  0  0  0  0  0  0  0
    7.0565    1.7655    0.0000 C   0  0  0  0  0  0  0  0  0  0  0  0
    7.0565    0.9405    0.0000 N   0  0  0  0  0  0  0  0  0  0  0  0
    6.3420    0.5280    0.0000 C   0  0  0  0  0  0  0  0  0  0  0  0
    6.3420   -0.2970    0.0000 C   0  0  0  0  0  0  0  0  0  0  0  0
    5.6275   -0.7095    0.0000 C   0  0  0  0  0  0  0  0  0  0  0  0
    5.6275   -1.5345    0.0000 C   0  0  0  0  0  0  0  0  0  0  0  0
    4.9131   -1.9470    0.0000 C   0  0  0  0  0  0  0  0  0  0  0  0
    4.1986   -1.5345    0.0000 C   0  0  0  0  0  0  0  0  0  0  0  0
    3.4841   -1.9470    0.0000 O   0  0  0  0  0  0  0  0  0  0  0  0
    3.4841   -2.7720    0.0000 C   0  0  0  0  0  0  0  0  0  0  0  0
    4.1986   -0.7095    0.0000 C   0  0  0  0  0  0  0  0  0  0  0  0
    4.9131   -0.2970    0.0000 C   0  0  0  0  0  0  0  0  0  0  0  0
    4.9131   -2.7720    0.0000 O   0  0  0  0  0  0  0  0  0  0  0  0
    4.1986   -3.1845    0.0000 C   0  0  0  0  0  0  0  0  0  0  0  0
   -0.4125    0.0000    0.0000 Cl  0  5  0  0  0  0  0  0  0  0  0  0
  2  3  2  0  0  0  0
  3  4  1  0  0  0  0
  4  5  2  0  0  0  0
  5  6  1  0  0  0  0
  6  7  2  0  0  0  0
  2  7  1  0  0  0  0
  7  8  1  0  0  0  0
  8  9  1  0  0  0  0
  6 10  1  0  0  0  0
 10 11  1  0  0  0  0
  4 12  1  0  0  0  0
 12 13  2  0  0  0  0
 13 14  1  0  0  0  0
 14 15  2  0  0  0  0
  3 15  1  0  0  0  0
 15 16  1  0  0  0  0
 16 17  1  0  0  0  0
 17 18  2  0  0  0  0
 18 19  1  0  0  0  0
 19 20  2  0  0  0  0
 20 21  1  0  0  0  0
 21 22  1  0  0  0  0
 20 23  1  0  0  0  0
 23 24  2  0  0  0  0
 17 24  1  0  0  0  0
 19 25  1  0  0  0  0
 25 26  1  0  0  0  0
M  CHG  2   1   1  27  -1
M  END
>  <Name>
Papaverine HCl

>  <CAS>
61-25-6

>  <Formula>
C20H22ClNO4

>  <MolWt>
375.85 

>  <Bioactivity>
An alkaloid found in opium but not closely related to the other opium alkaloids in its structure or pharmacological actions. It is a direct-acting smooth muscle relaxant used in the treatment of impotence and as a vasodilator, especially for cerebral vasodilation. The mechanism of its pharmacological actions is not clear, but it apparently can inhibit phosphodiesterases and it may have direct actions on calcium channels.


>  <Pathways>
Metabolism

>  <Target>
PDE inhibitor

>  <Receptor>
PDE

>  <Reference>
1. Xin ZC, et al. Asian J Androl. 2003 Mar;5(1):15-8. 

$$$$
113-92-8
  Mrv1561503291623562D          

 27 27  0  0  0  0            999 V2000
   -0.6017    1.3026    0.0000 C   0  0  0  0  0  0  0  0  0  0  0  0
   -0.6017    0.4776    0.0000 C   0  0  0  0  0  0  0  0  0  0  0  0
    0.1128    0.0651    0.0000 C   0  0  0  0  0  0  0  0  0  0  0  0
    0.8273    0.4776    0.0000 C   0  0  0  0  0  0  0  0  0  0  0  0
    1.5418    0.0651    0.0000 C   0  0  0  0  0  0  0  0  0  0  0  0
    2.2562    0.4776    0.0000 N   0  3  0  0  0  0  0  0  0  0  0  0
    2.9707    0.0651    0.0000 C   0  0  0  0  0  0  0  0  0  0  0  0
    2.2562    1.3026    0.0000 C   0  0  0  0  0  0  0  0  0  0  0  0
    0.1128   -0.7599    0.0000 C   0  0  0  0  0  0  0  0  0  0  0  0
    0.8273   -1.1724    0.0000 N   0  0  0  0  0  0  0  0  0  0  0  0
    0.8273   -1.9974    0.0000 C   0  0  0  0  0  0  0  0  0  0  0  0
    0.1128   -2.4099    0.0000 C   0  0  0  0  0  0  0  0  0  0  0  0
   -0.6017   -1.9974    0.0000 C   0  0  0  0  0  0  0  0  0  0  0  0
   -0.6017   -1.1724    0.0000 C   0  0  0  0  0  0  0  0  0  0  0  0
   -1.3161    0.0651    0.0000 C   0  0  0  0  0  0  0  0  0  0  0  0
   -2.0306    0.4776    0.0000 C   0  0  0  0  0  0  0  0  0  0  0  0
   -2.0306    1.3026    0.0000 C   0  0  0  0  0  0  0  0  0  0  0  0
   -1.3161    1.7151    0.0000 C   0  0  0  0  0  0  0  0  0  0  0  0
   -2.7451    1.7151    0.0000 Cl  0  0  0  0  0  0  0  0  0  0  0  0
    8.1564   -0.0000    0.0000 O   0  0  0  0  0  0  0  0  0  0  0  0
    7.3314    0.0000    0.0000 C   0  0  0  0  0  0  0  0  0  0  0  0
    6.9189    0.7145    0.0000 C   0  0  0  0  0  0  0  0  0  0  0  0
    6.0939    0.7145    0.0000 C   0  0  0  0  0  0  0  0  0  0  0  0
    5.6814    0.0000    0.0000 C   0  0  0  0  0  0  0  0  0  0  0  0
    6.0939   -0.7145    0.0000 O   0  0  0  0  0  0  0  0  0  0  0  0
    4.8564    0.0000    0.0000 O   0  0  0  0  0  0  0  0  0  0  0  0
    6.9189   -0.7145    0.0000 O   0  5  0  0  0  0  0  0  0  0  0  0
  1  2  2  0  0  0  0
  2  3  1  0  0  0  0
  3  4  1  0  0  0  0
  4  5  1  0  0  0  0
  5  6  1  0  0  0  0
  6  7  1  0  0  0  0
  6  8  1  0  0  0  0
  3  9  1  0  0  0  0
  9 10  2  0  0  0  0
 10 11  1  0  0  0  0
 11 12  2  0  0  0  0
 12 13  1  0  0  0  0
 13 14  2  0  0  0  0
  9 14  1  0  0  0  0
  2 15  1  0  0  0  0
 15 16  2  0  0  0  0
 16 17  1  0  0  0  0
 17 18  2  0  0  0  0
  1 18  1  0  0  0  0
 17 19  1  0  0  0  0
 20 21  2  0  0  0  0
 21 22  1  0  0  0  0
 22 23  2  0  0  0  0
 23 24  1  0  0  0  0
 24 25  2  0  0  0  0
 24 26  1  0  0  0  0
 21 27  1  0  0  0  0
M  CHG  2   6   1  27  -1
M  END
>  <Name>
Chlorpheniramine maleate

>  <CAS>
113-92-8

>  <Formula>
C20H23ClN2O4

>  <MolWt>
390.87 

>  <Bioactivity>
Chlorpheniramine (Chlorpheniramine maleate, Chlorphenamine) is an histamine H1 receptor antagonist .

>  <Pathways>
Neuroscience

>  <Target>
Serotonin uptake inhibitor;Dopamine uptake inhibitor;Histamine Receptor antagonist;Noradrenaline uptake inhibitor

>  <Receptor>
Sodium-dependent serotonin transporter;Sodium-dependent dopamine transporter;Histamine receptor;Sodium-dependent noradrenaline transporter

>  <Reference>
1. Iemura R, et al. J Med Chem, 1986, 29(7), 1178-1183.

$$$$
T0461
  Mrv1561503291623562D          

 26 29  0  0  0  0            999 V2000
    0.1164   -0.6417    0.0000 C   0  0  0  0  0  0  0  0  0  0  0  0
    0.9413   -0.6292    0.0000 C   0  0  0  0  0  0  0  0  0  0  0  0
    1.3646   -1.3373    0.0000 C   0  0  0  0  0  0  0  0  0  0  0  0
    2.1895   -1.3247    0.0000 C   0  0  0  0  0  0  0  0  0  0  0  0
    2.5911   -0.6041    0.0000 C   0  0  0  0  0  0  0  0  0  0  0  0
    2.1678    0.1040    0.0000 C   0  0  0  0  0  0  0  0  0  0  0  0
    1.3429    0.0915    0.0000 C   0  0  0  0  0  0  0  0  0  0  0  0
    0.9195    0.7996    0.0000 C   0  0  0  0  0  0  0  0  0  0  0  0
    0.0946    0.7871    0.0000 N   0  3  0  0  0  0  0  0  0  0  0  0
   -0.3070    0.0664    0.0000 C   0  0  0  0  0  0  0  0  0  0  0  0
   -1.1319    0.0539    0.0000 C   0  0  0  0  0  0  0  0  0  0  0  0
   -1.5334   -0.6668    0.0000 C   0  0  0  0  0  0  0  0  0  0  0  0
   -2.3584   -0.6794    0.0000 C   0  0  0  0  0  0  0  0  0  0  0  0
   -2.7817    0.0288    0.0000 C   0  0  0  0  0  0  0  0  0  0  0  0
   -2.3801    0.7494    0.0000 C   0  0  0  0  0  0  0  0  0  0  0  0
   -1.5552    0.7620    0.0000 C   0  0  0  0  0  0  0  0  0  0  0  0
   -1.1536    1.4826    0.0000 C   0  0  0  0  0  0  0  0  0  0  0  0
   -0.3287    1.4952    0.0000 C   0  0  0  0  0  0  0  0  0  0  0  0
   -3.5859   -0.1550    0.0000 O   0  0  0  0  0  0  0  0  0  0  0  0
   -3.6597   -0.9767    0.0000 C   0  0  0  0  0  0  0  0  0  0  0  0
   -2.9010   -1.3008    0.0000 O   0  0  0  0  0  0  0  0  0  0  0  0
    2.5693    0.8247    0.0000 O   0  0  0  0  0  0  0  0  0  0  0  0
    2.1460    1.5328    0.0000 C   0  0  0  0  0  0  0  0  0  0  0  0
    3.4160   -0.5915    0.0000 O   0  0  0  0  0  0  0  0  0  0  0  0
    3.8176    0.1291    0.0000 C   0  0  0  0  0  0  0  0  0  0  0  0
    6.1747    0.0000    0.0000 Cl  0  5  0  0  0  0  0  0  0  0  0  0
  1  2  2  0  0  0  0
  2  3  1  0  0  0  0
  3  4  2  0  0  0  0
  4  5  1  0  0  0  0
  5  6  2  0  0  0  0
  6  7  1  0  0  0  0
  2  7  1  0  0  0  0
  7  8  2  0  0  0  0
  8  9  1  0  0  0  0
  9 10  2  0  0  0  0
  1 10  1  0  0  0  0
 10 11  1  0  0  0  0
 11 12  2  0  0  0  0
 12 13  1  0  0  0  0
 13 14  2  0  0  0  0
 14 15  1  0  0  0  0
 15 16  2  0  0  0  0
 11 16  1  0  0  0  0
 16 17  1  0  0  0  0
 17 18  1  0  0  0  0
  9 18  1  0  0  0  0
 14 19  1  0  0  0  0
 19 20  1  0  0  0  0
 20 21  1  0  0  0  0
 13 21  1  0  0  0  0
  6 22  1  0  0  0  0
 22 23  1  0  0  0  0
  5 24  1  0  0  0  0
 24 25  1  0  0  0  0
M  CHG  2   9   1  26  -1
M  END
>  <Name>
Berberine HCl

>  <CAS>
633-65-8

>  <Formula>
C20H18ClNO4

>  <MolWt>
371.80 

>  <Bioactivity>
An alkaloid from Hydrastis canadensis L., Berberidaceae. It is also found in many other plants. It is relatively toxic parenterally, but has been used orally for various parasitic and fungal infections and as antidiarrheal. 

>  <Pathways>
Microbiology & Virology

>  <Target>
Antibiotic

>  <Receptor>
Others

>  <Reference>
1. Zhang Y, et al. J Pharmacol Exp Ther. 2014 Jun; 349(3):417-26.

$$$$
72509-76-3
  Mrv1561503291623562D          

 25 26  0  0  0  0            999 V2000
    0.7145   -2.8875    0.0000 C   0  0  0  0  0  0  0  0  0  0  0  0
    0.0000   -2.4750    0.0000 C   0  0  0  0  0  0  0  0  0  0  0  0
   -0.7145   -2.8875    0.0000 C   0  0  0  0  0  0  0  0  0  0  0  0
   -0.7145   -3.7125    0.0000 C   0  0  0  0  0  0  0  0  0  0  0  0
   -1.4289   -4.1250    0.0000 C   0  0  0  0  0  0  0  0  0  0  0  0
   -2.1434   -3.7125    0.0000 N   0  0  0  0  0  0  0  0  0  0  0  0
   -2.1434   -2.8875    0.0000 C   0  0  0  0  0  0  0  0  0  0  0  0
   -1.4289   -2.4750    0.0000 C   0  0  0  0  0  0  0  0  0  0  0  0
   -1.4289   -1.6500    0.0000 C   0  0  0  0  0  0  0  0  0  0  0  0
   -2.1434   -1.2375    0.0000 O   0  0  0  0  0  0  0  0  0  0  0  0
   -2.1434   -0.4125    0.0000 C   0  0  0  0  0  0  0  0  0  0  0  0
   -0.7145   -1.2375    0.0000 O   0  0  0  0  0  0  0  0  0  0  0  0
   -2.8579   -2.4750    0.0000 C   0  0  0  0  0  0  0  0  0  0  0  0
   -1.4289   -4.9500    0.0000 C   0  0  0  0  0  0  0  0  0  0  0  0
   -0.0000   -4.1250    0.0000 C   0  0  0  0  0  0  0  0  0  0  0  0
   -0.0000   -4.9500    0.0000 O   0  0  0  0  0  0  0  0  0  0  0  0
    0.7145   -5.3625    0.0000 C   0  0  0  0  0  0  0  0  0  0  0  0
    0.7145   -6.1875    0.0000 C   0  0  0  0  0  0  0  0  0  0  0  0
    0.7145   -3.7125    0.0000 O   0  0  0  0  0  0  0  0  0  0  0  0
   -0.0000   -1.6500    0.0000 C   0  0  0  0  0  0  0  0  0  0  0  0
    0.7145   -1.2375    0.0000 C   0  0  0  0  0  0  0  0  0  0  0  0
    1.4289   -1.6500    0.0000 C   0  0  0  0  0  0  0  0  0  0  0  0
    1.4289   -2.4750    0.0000 C   0  0  0  0  0  0  0  0  0  0  0  0
    0.7145   -0.4125    0.0000 Cl  0  0  0  0  0  0  0  0  0  0  0  0
   -0.3356   -0.8963    0.0000 Cl  0  0  0  0  0  0  0  0  0  0  0  0
  1  2  2  0  0  0  0
  2  3  1  0  0  0  0
  3  4  1  0  0  0  0
  4  5  2  0  0  0  0
  5  6  1  0  0  0  0
  6  7  1  0  0  0  0
  7  8  2  0  0  0  0
  3  8  1  0  0  0  0
  8  9  1  0  0  0  0
  9 10  1  0  0  0  0
 10 11  1  0  0  0  0
  9 12  2  0  0  0  0
  7 13  1  0  0  0  0
  5 14  1  0  0  0  0
  4 15  1  0  0  0  0
 15 16  1  0  0  0  0
 16 17  1  0  0  0  0
 17 18  1  0  0  0  0
 15 19  2  0  0  0  0
  2 20  1  0  0  0  0
 20 21  2  0  0  0  0
 21 22  1  0  0  0  0
 22 23  2  0  0  0  0
  1 23  1  0  0  0  0
 21 24  1  0  0  0  0
 20 25  1  0  0  0  0
M  END
>  <Name>
Felodipine

>  <CAS>
72509-76-3

>  <Formula>
C18H19Cl2NO4

>  <MolWt>
384.26 

>  <Bioactivity>
A dihydropyridine calcium antagonist with positive inotropic effects. It lowers blood pressure by reducing peripheral vascular resistance through a highly selective action on smooth muscle in arteriolar resistance vessels.

>  <Pathways>
Metabolism;Membrane Transporter/Ion Channel

>  <Target>
PDE inhibitor;Calcium Channel inhibitor;Calmodulin inhibitor

>  <Receptor>
Calcium/calmodulin-dependent 3',5'-cyclic nucleotide phosphodiesterase;Calcium Channel;Calmodulin

>  <Reference>
1. Furukawa T, et al. J Pharmacol Exp Ther. 1999 Nov;291(2):464-73. 

$$$$
T0836
  Mrv1561503291623562D          

 21 22  0  0  0  0            999 V2000
    2.8579   -3.3000    0.0000 C   0  0  0  0  0  0  0  0  0  0  0  0
    2.1434   -3.7125    0.0000 N   0  0  0  0  0  0  0  0  0  0  0  0
    1.4289   -3.3000    0.0000 C   0  0  0  0  0  0  0  0  0  0  0  0
    1.4289   -2.4750    0.0000 C   0  0  0  0  0  0  0  0  0  0  0  0
    2.1434   -2.0625    0.0000 C   0  0  0  0  0  0  0  0  0  0  0  0
    2.8579   -2.4750    0.0000 N   0  0  0  0  0  0  0  0  0  0  0  0
    2.1434   -1.2375    0.0000 O   0  0  0  0  0  0  0  0  0  0  0  0
    1.4289   -0.8250    0.0000 C   0  0  0  0  0  0  0  0  0  0  0  0
    0.7145   -2.0625    0.0000 O   0  0  0  0  0  0  0  0  0  0  0  0
    0.7145   -1.2375    0.0000 C   0  0  0  0  0  0  0  0  0  0  0  0
    0.7145   -3.7125    0.0000 N   0  0  0  0  0  0  0  0  0  0  0  0
   -0.0000   -3.3000    0.0000 S   0  0  0  0  0  0  0  0  0  0  0  0
   -0.7145   -2.8875    0.0000 C   0  0  0  0  0  0  0  0  0  0  0  0
   -1.4289   -3.3000    0.0000 C   0  0  0  0  0  0  0  0  0  0  0  0
   -2.1434   -2.8875    0.0000 C   0  0  0  0  0  0  0  0  0  0  0  0
   -2.1434   -2.0625    0.0000 C   0  0  0  0  0  0  0  0  0  0  0  0
   -2.8579   -1.6500    0.0000 N   0  0  0  0  0  0  0  0  0  0  0  0
   -1.4289   -1.6500    0.0000 C   0  0  0  0  0  0  0  0  0  0  0  0
   -0.7145   -2.0625    0.0000 C   0  0  0  0  0  0  0  0  0  0  0  0
    0.4125   -2.5855    0.0000 O   0  0  0  0  0  0  0  0  0  0  0  0
   -0.4125   -4.0145    0.0000 O   0  0  0  0  0  0  0  0  0  0  0  0
  1  2  2  0  0  0  0
  2  3  1  0  0  0  0
  3  4  2  0  0  0  0
  4  5  1  0  0  0  0
  5  6  2  0  0  0  0
  1  6  1  0  0  0  0
  5  7  1  0  0  0  0
  7  8  1  0  0  0  0
  4  9  1  0  0  0  0
  9 10  1  0  0  0  0
  3 11  1  0  0  0  0
 11 12  1  0  0  0  0
 12 13  1  0  0  0  0
 13 14  2  0  0  0  0
 14 15  1  0  0  0  0
 15 16  2  0  0  0  0
 16 17  1  0  0  0  0
 16 18  1  0  0  0  0
 18 19  2  0  0  0  0
 13 19  1  0  0  0  0
 12 20  2  0  0  0  0
 12 21  2  0  0  0  0
M  END
>  <Name>
Sulfadoxine

>  <CAS>
2447-57-6

>  <Formula>
C12H14N4O4S

>  <MolWt>
310.33 

>  <Bioactivity>
It is often used in combination with pyrimethamine to treat or prevent malaria. Both drugs are antifolates; they inhibit the production of enzymes involved in the synthesis of folic acid within the parasites. Either drug by itself is only moderately effective in treating malaria, because the parasite Plasmodium falciparum may be able to use exogenous folic acid, i.e. folic acid which is present in the parasite's environment, while in combination, the two substances have a synergistic effect which outbalances that ability.

>  <Pathways>
Enzyme

>  <Target>
DHPS inhibitor;DHFR inhibitor

>  <Receptor>
DHPS;DHFR-TS

>  <Reference>
1. Raman J, et al. Am J Trop Med Hyg. 2010, 82(5):788-94. 

$$$$
92339-11-2
  Mrv1561503291623562D          

 62 63  0  0  0  0            999 V2000
    0.7145   -2.8875    0.0000 C   0  0  0  0  0  0  0  0  0  0  0  0
   -0.0000   -3.3000    0.0000 N   0  0  0  0  0  0  0  0  0  0  0  0
   -0.7145   -2.8875    0.0000 C   0  0  0  0  0  0  0  0  0  0  0  0
   -1.4289   -3.3000    0.0000 C   0  0  0  0  0  0  0  0  0  0  0  0
   -2.1434   -2.8875    0.0000 C   0  0  0  0  0  0  0  0  0  0  0  0
   -2.1434   -2.0625    0.0000 C   0  0  0  0  0  0  0  0  0  0  0  0
   -1.4289   -1.6500    0.0000 C   0  0  0  0  0  0  0  0  0  0  0  0
   -0.7145   -2.0625    0.0000 C   0  0  0  0  0  0  0  0  0  0  0  0
   -0.0000   -1.6500    0.0000 I   0  0  0  0  0  0  0  0  0  0  0  0
   -1.4289   -0.8250    0.0000 C   0  0  0  0  0  0  0  0  0  0  0  0
   -2.1434   -0.4125    0.0000 N   0  0  0  0  0  0  0  0  0  0  0  0
   -2.1434    0.4125    0.0000 C   0  0  0  0  0  0  0  0  0  0  0  0
   -2.8579    0.8250    0.0000 C   0  0  0  0  0  0  0  0  0  0  0  0
   -2.8579    1.6500    0.0000 C   0  0  0  0  0  0  0  0  0  0  0  0
   -3.5724    2.0625    0.0000 O   0  0  0  0  0  0  0  0  0  0  0  0
   -3.5724    0.4125    0.0000 O   0  0  0  0  0  0  0  0  0  0  0  0
   -0.7145   -0.4125    0.0000 O   0  0  0  0  0  0  0  0  0  0  0  0
   -2.8579   -1.6500    0.0000 I   0  0  0  0  0  0  0  0  0  0  0  0
   -2.8579   -3.3000    0.0000 C   0  0  0  0  0  0  0  0  0  0  0  0
   -3.5724   -2.8875    0.0000 N   0  0  0  0  0  0  0  0  0  0  0  0
   -4.2868   -3.3000    0.0000 C   0  0  0  0  0  0  0  0  0  0  0  0
   -5.0013   -2.8875    0.0000 C   0  0  0  0  0  0  0  0  0  0  0  0
   -5.7158   -3.3000    0.0000 C   0  0  0  0  0  0  0  0  0  0  0  0
   -6.4302   -2.8875    0.0000 O   0  0  0  0  0  0  0  0  0  0  0  0
   -5.0013   -2.0625    0.0000 O   0  0  0  0  0  0  0  0  0  0  0  0
   -2.8579   -4.1250    0.0000 O   0  0  0  0  0  0  0  0  0  0  0  0
   -1.4289   -4.1250    0.0000 I   0  0  0  0  0  0  0  0  0  0  0  0
   -0.0000   -4.1250    0.0000 C   0  0  0  0  0  0  0  0  0  0  0  0
    0.7145   -4.5375    0.0000 C   0  0  0  0  0  0  0  0  0  0  0  0
   -0.7145   -4.5375    0.0000 O   0  0  0  0  0  0  0  0  0  0  0  0
    1.4289   -3.3000    0.0000 C   0  0  0  0  0  0  0  0  0  0  0  0
    2.1434   -2.8875    0.0000 C   0  0  0  0  0  0  0  0  0  0  0  0
    2.8579   -3.3000    0.0000 N   0  0  0  0  0  0  0  0  0  0  0  0
    3.5724   -2.8875    0.0000 C   0  0  0  0  0  0  0  0  0  0  0  0
    3.5724   -2.0625    0.0000 C   0  0  0  0  0  0  0  0  0  0  0  0
    4.2868   -1.6500    0.0000 C   0  0  0  0  0  0  0  0  0  0  0  0
    5.0013   -2.0625    0.0000 C   0  0  0  0  0  0  0  0  0  0  0  0
    5.0013   -2.8875    0.0000 C   0  0  0  0  0  0  0  0  0  0  0  0
    4.2868   -3.3000    0.0000 C   0  0  0  0  0  0  0  0  0  0  0  0
    4.2868   -4.1250    0.0000 I   0  0  0  0  0  0  0  0  0  0  0  0
    5.7158   -3.3000    0.0000 C   0  0  0  0  0  0  0  0  0  0  0  0
    6.4302   -2.8875    0.0000 N   0  0  0  0  0  0  0  0  0  0  0  0
    7.1447   -3.3000    0.0000 C   0  0  0  0  0  0  0  0  0  0  0  0
    7.8592   -2.8875    0.0000 C   0  0  0  0  0  0  0  0  0  0  0  0
    8.5737   -3.3000    0.0000 C   0  0  0  0  0  0  0  0  0  0  0  0
    9.2881   -2.8875    0.0000 O   0  0  0  0  0  0  0  0  0  0  0  0
    7.8592   -2.0625    0.0000 O   0  0  0  0  0  0  0  0  0  0  0  0
    5.7158   -4.1250    0.0000 O   0  0  0  0  0  0  0  0  0  0  0  0
    5.7158   -1.6500    0.0000 I   0  0  0  0  0  0  0  0  0  0  0  0
    4.2868   -0.8250    0.0000 C   0  0  0  0  0  0  0  0  0  0  0  0
    5.0013   -0.4125    0.0000 N   0  0  0  0  0  0  0  0  0  0  0  0
    5.0013    0.4125    0.0000 C   0  0  0  0  0  0  0  0  0  0  0  0
    5.7158    0.8250    0.0000 C   0  0  0  0  0  0  0  0  0  0  0  0
    5.7158    1.6500    0.0000 C   0  0  0  0  0  0  0  0  0  0  0  0
    6.4302    2.0625    0.0000 O   0  0  0  0  0  0  0  0  0  0  0  0
    6.4302    0.4125    0.0000 O   0  0  0  0  0  0  0  0  0  0  0  0
    3.5724   -0.4125    0.0000 O   0  0  0  0  0  0  0  0  0  0  0  0
    2.8579   -1.6500    0.0000 I   0  0  0  0  0  0  0  0  0  0  0  0
    2.8579   -4.1250    0.0000 C   0  0  0  0  0  0  0  0  0  0  0  0
    3.5724   -4.5375    0.0000 C   0  0  0  0  0  0  0  0  0  0  0  0
    2.1434   -4.5375    0.0000 O   0  0  0  0  0  0  0  0  0  0  0  0
    1.4289   -4.1250    0.0000 O   0  0  0  0  0  0  0  0  0  0  0  0
  1  2  1  0  0  0  0
  2  3  1  0  0  0  0
  3  4  2  0  0  0  0
  4  5  1  0  0  0  0
  5  6  2  0  0  0  0
  6  7  1  0  0  0  0
  7  8  2  0  0  0  0
  3  8  1  0  0  0  0
  8  9  1  0  0  0  0
  7 10  1  0  0  0  0
 10 11  1  0  0  0  0
 11 12  1  0  0  0  0
 12 13  1  0  0  0  0
 13 14  1  0  0  0  0
 14 15  1  0  0  0  0
 13 16  1  0  0  0  0
 10 17  2  0  0  0  0
  6 18  1  0  0  0  0
  5 19  1  0  0  0  0
 19 20  1  0  0  0  0
 20 21  1  0  0  0  0
 21 22  1  0  0  0  0
 22 23  1  0  0  0  0
 23 24  1  0  0  0  0
 22 25  1  0  0  0  0
 19 26  2  0  0  0  0
  4 27  1  0  0  0  0
  2 28  1  0  0  0  0
 28 29  1  0  0  0  0
 28 30  2  0  0  0  0
  1 31  1  0  0  0  0
 31 32  1  0  0  0  0
 32 33  1  0  0  0  0
 33 34  1  0  0  0  0
 34 35  2  0  0  0  0
 35 36  1  0  0  0  0
 36 37  2  0  0  0  0
 37 38  1  0  0  0  0
 38 39  2  0  0  0  0
 34 39  1  0  0  0  0
 39 40  1  0  0  0  0
 38 41  1  0  0  0  0
 41 42  1  0  0  0  0
 42 43  1  0  0  0  0
 43 44  1  0  0  0  0
 44 45  1  0  0  0  0
 45 46  1  0  0  0  0
 44 47  1  0  0  0  0
 41 48  2  0  0  0  0
 37 49  1  0  0  0  0
 36 50  1  0  0  0  0
 50 51  1  0  0  0  0
 51 52  1  0  0  0  0
 52 53  1  0  0  0  0
 53 54  1  0  0  0  0
 54 55  1  0  0  0  0
 53 56  1  0  0  0  0
 50 57  2  0  0  0  0
 35 58  1  0  0  0  0
 33 59  1  0  0  0  0
 59 60  1  0  0  0  0
 59 61  2  0  0  0  0
 31 62  1  0  0  0  0
M  END
>  <Name>
Iodixanol

>  <CAS>
92339-11-2

>  <Formula>
C35H44I6N6O15

>  <MolWt>
1550.18 

>  <Bioactivity>
Iodixanol is a nonionic hydrophilic compound commonly used as a contrast agent during coronary angiography, particularly in individuals with renal dysfunction, as it is believed to be less toxic to the kidneys than most other intravascular contrast agents. 

>  <Pathways>
Others

>  <Target>
Others

>  <Receptor>
Others

>  <Reference>
1. Zhang BC, et al. J Cardiol. 2014 Apr;63(4):260-8.

$$$$
130-40-5
  Mrv1561503291623562D          

 32 33  0  0  0  0            999 V2000
    0.0000   -6.6000    0.0000 C   0  0  0  0  0  0  0  0  0  0  0  0
    0.0000   -5.7750    0.0000 C   0  0  0  0  0  0  0  0  0  0  0  0
    0.7145   -5.3625    0.0000 C   0  0  0  0  0  0  0  0  0  0  0  0
    0.7145   -4.5375    0.0000 C   0  0  0  0  0  0  0  0  0  0  0  0
   -0.0000   -4.1250    0.0000 C   0  0  0  0  0  0  0  0  0  0  0  0
   -0.7145   -4.5375    0.0000 C   0  0  0  0  0  0  0  0  0  0  0  0
   -0.7145   -5.3625    0.0000 C   0  0  0  0  0  0  0  0  0  0  0  0
   -1.4289   -5.7750    0.0000 C   0  0  0  0  0  0  0  0  0  0  0  0
   -0.0000   -3.3000    0.0000 N   0  0  0  0  0  0  0  0  0  0  0  0
    0.7145   -2.8875    0.0000 C   0  0  0  0  0  0  0  0  0  0  0  0
    0.7145   -2.0625    0.0000 N   0  0  0  0  0  0  0  0  0  0  0  0
    1.4289   -1.6500    0.0000 C   0  0  0  0  0  0  0  0  0  0  0  0
    1.4289   -0.8250    0.0000 O   0  0  0  0  0  0  0  0  0  0  0  0
    2.1434   -2.0625    0.0000 N   0  0  0  0  0  0  0  0  0  0  0  0
    2.1434   -2.8875    0.0000 C   0  0  0  0  0  0  0  0  0  0  0  0
    2.8579   -3.3000    0.0000 O   0  0  0  0  0  0  0  0  0  0  0  0
    1.4289   -3.3000    0.0000 C   0  0  0  0  0  0  0  0  0  0  0  0
    1.4289   -4.1250    0.0000 N   0  0  0  0  0  0  0  0  0  0  0  0
   -0.7145   -2.8875    0.0000 C   0  0  0  0  0  0  0  0  0  0  0  0
   -0.7145   -2.0625    0.0000 C   0  0  0  0  0  0  0  0  0  0  0  0
   -1.4289   -1.6500    0.0000 C   0  0  0  0  0  0  0  0  0  0  0  0
   -1.4289   -0.8250    0.0000 C   0  0  0  0  0  0  0  0  0  0  0  0
   -2.1434   -0.4125    0.0000 C   0  0  0  0  0  0  0  0  0  0  0  0
   -2.1434    0.4125    0.0000 O   0  0  0  0  0  0  0  0  0  0  0  0
   -2.8579    0.8250    0.0000 P   0  0  0  0  0  0  0  0  0  0  0  0
   -3.5724    1.2375    0.0000 O   0  0  0  0  0  0  0  0  0  0  0  0
   -2.4454    1.5395    0.0000 O   0  0  0  0  0  0  0  0  0  0  0  0
   -3.2704    0.1105    0.0000 O   0  0  0  0  0  0  0  0  0  0  0  0
   -0.7145   -0.4125    0.0000 O   0  0  0  0  0  0  0  0  0  0  0  0
   -2.1434   -2.0625    0.0000 O   0  0  0  0  0  0  0  0  0  0  0  0
   -0.0000   -1.6500    0.0000 O   0  5  0  0  0  0  0  0  0  0  0  0
    0.7145   -1.2375    0.0000 Na  0  3  0  0  0  0  0  0  0  0  0  0
  1  2  1  0  0  0  0
  2  3  2  0  0  0  0
  3  4  1  0  0  0  0
  4  5  2  0  0  0  0
  5  6  1  0  0  0  0
  6  7  2  0  0  0  0
  2  7  1  0  0  0  0
  7  8  1  0  0  0  0
  5  9  1  0  0  0  0
  9 10  1  0  0  0  0
 10 11  2  0  0  0  0
 11 12  1  0  0  0  0
 12 13  2  0  0  0  0
 12 14  1  0  0  0  0
 14 15  1  0  0  0  0
 15 16  2  0  0  0  0
 15 17  1  0  0  0  0
 10 17  1  0  0  0  0
 17 18  2  0  0  0  0
  4 18  1  0  0  0  0
  9 19  1  0  0  0  0
 19 20  1  0  0  0  0
 20 21  1  0  0  0  0
 21 22  1  0  0  0  0
 22 23  1  0  0  0  0
 23 24  1  0  0  0  0
 24 25  1  0  0  0  0
 25 26  2  0  0  0  0
 25 27  1  0  0  0  0
 25 28  1  0  0  0  0
 22 29  1  0  0  0  0
 21 30  1  0  0  0  0
 20 31  1  0  0  0  0
M  CHG  2  31  -1  32   1
M  END
>  <Name>
Flavin mononucleotide

>  <CAS>
130-40-5

>  <Formula>
C17H20N4NaO9P

>  <MolWt>
478.33 

>  <Bioactivity>
Flavin mononucleotide (FMN), or riboflavin-5?-phosphate, is a biomolecule produced from riboflavin (vitamin B2) by the enzyme riboflavin kinase and functions as prosthetic group of various oxidoreductases including NADH dehydrogenase as well as cofactor in biological blue-light photo receptors.

>  <Pathways>
Vitamin

>  <Target>
VB

>  <Receptor>
VB2

>  <Reference>
1. Shen K, Huang XE. Asian Pac J Cancer Prev. 2015;16(4):1525-7.

$$$$
T0800
  Mrv1561503291623562D          

 18 20  0  0  0  0            999 V2000
    3.5724   -0.4125    0.0000 C   0  0  0  0  0  0  0  0  0  0  0  0
    2.8579    0.0000    0.0000 C   0  0  0  0  0  0  0  0  0  0  0  0
    2.8579    0.8250    0.0000 C   0  0  0  0  0  0  0  0  0  0  0  0
    3.5724    1.2375    0.0000 C   0  0  0  0  0  0  0  0  0  0  0  0
    3.5724    2.0625    0.0000 O   0  0  0  0  0  0  0  0  0  0  0  0
    4.2868    0.8250    0.0000 C   0  0  0  0  0  0  0  0  0  0  0  0
    4.2868    0.0000    0.0000 C   0  0  0  0  0  0  0  0  0  0  0  0
    2.1434    1.2375    0.0000 C   0  0  0  0  0  0  0  0  0  0  0  0
    2.1434    2.0625    0.0000 O   0  0  0  0  0  0  0  0  0  0  0  0
    1.4289    0.8250    0.0000 C   0  0  0  0  0  0  0  0  0  0  0  0
    1.4289   -0.0000    0.0000 C   0  0  0  0  0  0  0  0  0  0  0  0
    2.1434   -0.4125    0.0000 C   0  0  0  0  0  0  0  0  0  0  0  0
    2.1434   -1.2375    0.0000 O   0  0  0  0  0  0  0  0  0  0  0  0
    0.7145   -0.4125    0.0000 C   0  0  0  0  0  0  0  0  0  0  0  0
   -0.0000    0.0000    0.0000 C   0  0  0  0  0  0  0  0  0  0  0  0
   -0.0000    0.8250    0.0000 C   0  0  0  0  0  0  0  0  0  0  0  0
    0.7145    1.2375    0.0000 C   0  0  0  0  0  0  0  0  0  0  0  0
    0.7145    2.0625    0.0000 O   0  0  0  0  0  0  0  0  0  0  0  0
  1  2  2  0  0  0  0
  2  3  1  0  0  0  0
  3  4  2  0  0  0  0
  4  5  1  0  0  0  0
  4  6  1  0  0  0  0
  6  7  2  0  0  0  0
  1  7  1  0  0  0  0
  3  8  1  0  0  0  0
  8  9  2  0  0  0  0
  8 10  1  0  0  0  0
 10 11  2  0  0  0  0
 11 12  1  0  0  0  0
  2 12  1  0  0  0  0
 12 13  2  0  0  0  0
 11 14  1  0  0  0  0
 14 15  2  0  0  0  0
 15 16  1  0  0  0  0
 16 17  2  0  0  0  0
 10 17  1  0  0  0  0
 17 18  1  0  0  0  0
M  END
>  <Name>
Antrapurol

>  <CAS>
117-10-2

>  <Formula>
C14H8O4

>  <MolWt>
240.22 

>  <Bioactivity>
Dantron (INN), also known as chrysazin or 1,8-dihydroxyanthraquinone, is used in some countries as a stimulant laxative. Withdrawn from the Canadian, US, and UK markets in 1998 due to genotoxicity.  

>  <Pathways>
PI3K/Akt/mTOR Signaling

>  <Target>
AMPK activator

>  <Receptor>
AMPK

>  <Reference>
1. Zhou R, et al. Acta Pharmacol Sin. 2013 Aug; 34(8):1061-9. 

$$$$
474-25-9
  Mrv1561503291623562D          

 28 31  0  0  1  0            999 V2000
    0.7475   -2.9779    0.0000 C   0  0  1  0  0  0  0  0  0  0  0  0
    1.5596   -2.8327    0.0000 C   0  0  1  0  0  0  0  0  0  0  0  0
    2.0914   -3.4634    0.0000 C   0  0  1  0  0  0  0  0  0  0  0  0
    2.9035   -3.3182    0.0000 C   0  0  2  0  0  0  0  0  0  0  0  0
    3.1838   -2.5422    0.0000 C   0  0  1  0  0  0  0  0  0  0  0  0
    3.9960   -2.3970    0.0000 C   0  0  0  0  0  0  0  0  0  0  0  0
    4.5278   -3.0277    0.0000 C   0  0  2  0  0  0  0  0  0  0  0  0
    5.3399   -2.8825    0.0000 O   0  0  0  0  0  0  0  0  0  0  0  0
    4.2475   -3.8037    0.0000 C   0  0  0  0  0  0  0  0  0  0  0  0
    3.4354   -3.9489    0.0000 C   0  0  0  0  0  0  0  0  0  0  0  0
    2.6520   -1.9115    0.0000 C   0  0  0  0  0  0  0  0  0  0  0  0
    1.8399   -2.0567    0.0000 C   0  0  1  0  0  0  0  0  0  0  0  0
    1.3081   -1.4260    0.0000 O   0  0  0  0  0  0  0  0  0  0  0  0
    2.6232   -4.0941    0.0000 C   0  0  0  0  0  0  0  0  0  0  0  0
    1.8111   -4.2393    0.0000 C   0  0  0  0  0  0  0  0  0  0  0  0
    0.9990   -4.3845    0.0000 C   0  0  0  0  0  0  0  0  0  0  0  0
    0.4672   -3.7538    0.0000 C   0  0  2  0  0  0  0  0  0  0  0  0
   -0.3574   -3.7270    0.0000 C   0  0  1  0  0  0  0  0  0  0  0  0
   -0.8637   -4.3783    0.0000 C   0  0  1  0  0  0  0  0  0  0  0  0
   -1.6810   -4.2655    0.0000 C   0  0  0  0  0  0  0  0  0  0  0  0
   -2.1873   -4.9168    0.0000 C   0  0  0  0  0  0  0  0  0  0  0  0
   -3.0046   -4.8040    0.0000 C   0  0  0  0  0  0  0  0  0  0  0  0
   -3.5109   -5.4553    0.0000 O   0  0  0  0  0  0  0  0  0  0  0  0
   -3.3155   -4.0398    0.0000 O   0  0  0  0  0  0  0  0  0  0  0  0
   -0.5528   -5.1425    0.0000 C   0  0  0  0  0  0  0  0  0  0  0  0
   -0.5867   -2.9345    0.0000 C   0  0  0  0  0  0  0  0  0  0  0  0
    0.0962   -2.4715    0.0000 C   0  0  0  0  0  0  0  0  0  0  0  0
    0.1073   -4.4962    0.0000 C   0  0  0  0  0  0  0  0  0  0  0  0
  1  2  1  0  0  0  0
  2  3  1  0  0  0  0
  3  4  1  0  0  0  0
  4  5  1  0  0  0  0
  5  6  1  0  0  0  0
  6  7  1  0  0  0  0
  7  8  1  6  0  0  0
  7  9  1  0  0  0  0
  9 10  1  0  0  0  0
  4 10  1  0  0  0  0
  5 11  1  6  0  0  0
 11 12  1  0  0  0  0
  2 12  1  6  0  0  0
 12 13  1  6  0  0  0
  4 14  1  1  0  0  0
  3 15  1  1  0  0  0
 15 16  1  0  0  0  0
 16 17  1  0  0  0  0
  1 17  1  0  0  0  0
 17 18  1  0  0  0  0
 18 19  1  1  0  0  0
 19 20  1  0  0  0  0
 20 21  1  0  0  0  0
 21 22  1  0  0  0  0
 22 23  1  0  0  0  0
 22 24  2  0  0  0  0
 19 25  1  6  0  0  0
 18 26  1  0  0  0  0
 26 27  1  0  0  0  0
  1 27  1  1  0  0  0
 17 28  1  1  0  0  0
M  END
>  <Name>
Chenodeoxycholic acid

>  <CAS>
474-25-9

>  <Formula>
C24H40O4

>  <MolWt>
392.57 

>  <Bioactivity>
A bile acid, usually conjugated with either glycine or taurine. It acts as a detergent to solubilize fats for intestinal absorption and is reabsorbed by the small intestine. It is used as cholagogue, a choleretic laxative, and to prevent or dissolve gallstones. 

>  <Pathways>
Metabolism

>  <Target>
Biliation activator

>  <Receptor>
Bile acid receptor

>  <Reference>
1. Makishima M, et al. Science. 1999 May 21; 284(5418):1362-5. 

$$$$
153-18-4
  Mrv1561503291623562D          

 43 47  0  0  1  0            999 V2000
   -1.4289    0.8250    0.0000 C   0  0  2  0  0  0  0  0  0  0  0  0
   -1.4289   -0.0000    0.0000 O   0  0  0  0  0  0  0  0  0  0  0  0
   -0.7145   -0.4125    0.0000 C   0  0  0  0  0  0  0  0  0  0  0  0
   -0.7145   -1.2375    0.0000 C   0  0  0  0  0  0  0  0  0  0  0  0
   -0.0000   -1.6500    0.0000 O   0  0  0  0  0  0  0  0  0  0  0  0
    0.7145   -1.2375    0.0000 C   0  0  0  0  0  0  0  0  0  0  0  0
    0.7145   -0.4125    0.0000 C   0  0  0  0  0  0  0  0  0  0  0  0
   -0.0000   -0.0000    0.0000 C   0  0  0  0  0  0  0  0  0  0  0  0
   -0.0000    0.8250    0.0000 O   0  0  0  0  0  0  0  0  0  0  0  0
    1.4289    0.0000    0.0000 C   0  0  0  0  0  0  0  0  0  0  0  0
    2.1434   -0.4125    0.0000 C   0  0  0  0  0  0  0  0  0  0  0  0
    2.1434   -1.2375    0.0000 C   0  0  0  0  0  0  0  0  0  0  0  0
    1.4289   -1.6500    0.0000 C   0  0  0  0  0  0  0  0  0  0  0  0
    2.8579   -1.6500    0.0000 O   0  0  0  0  0  0  0  0  0  0  0  0
    1.4289    0.8250    0.0000 O   0  0  0  0  0  0  0  0  0  0  0  0
   -1.4289   -1.6500    0.0000 C   0  0  0  0  0  0  0  0  0  0  0  0
   -1.4289   -2.4750    0.0000 C   0  0  0  0  0  0  0  0  0  0  0  0
   -2.1434   -2.8875    0.0000 C   0  0  0  0  0  0  0  0  0  0  0  0
   -2.8579   -2.4750    0.0000 C   0  0  0  0  0  0  0  0  0  0  0  0
   -3.5724   -2.8875    0.0000 O   0  0  0  0  0  0  0  0  0  0  0  0
   -2.8579   -1.6500    0.0000 C   0  0  0  0  0  0  0  0  0  0  0  0
   -2.1434   -1.2375    0.0000 C   0  0  0  0  0  0  0  0  0  0  0  0
   -2.1434   -3.7125    0.0000 O   0  0  0  0  0  0  0  0  0  0  0  0
   -0.7145    1.2375    0.0000 O   0  0  0  0  0  0  0  0  0  0  0  0
   -0.7145    2.0625    0.0000 C   0  0  1  0  0  0  0  0  0  0  0  0
   -1.4289    2.4750    0.0000 C   0  0  1  0  0  0  0  0  0  0  0  0
   -1.4289    3.3000    0.0000 O   0  0  0  0  0  0  0  0  0  0  0  0
   -2.1434    2.0625    0.0000 C   0  0  2  0  0  0  0  0  0  0  0  0
   -2.8579    2.4750    0.0000 O   0  0  0  0  0  0  0  0  0  0  0  0
   -2.1434    1.2375    0.0000 C   0  0  1  0  0  0  0  0  0  0  0  0
   -2.8579    0.8250    0.0000 O   0  0  0  0  0  0  0  0  0  0  0  0
   -0.0000    2.4750    0.0000 C   0  0  0  0  0  0  0  0  0  0  0  0
    0.7145    2.0625    0.0000 O   0  0  0  0  0  0  0  0  0  0  0  0
    1.4289    2.4750    0.0000 C   0  0  2  0  0  0  0  0  0  0  0  0
    1.4289    3.3000    0.0000 O   0  0  0  0  0  0  0  0  0  0  0  0
    2.1434    3.7125    0.0000 C   0  0  2  0  0  0  0  0  0  0  0  0
    2.8579    3.3000    0.0000 C   0  0  2  0  0  0  0  0  0  0  0  0
    3.5724    3.7125    0.0000 O   0  0  0  0  0  0  0  0  0  0  0  0
    2.8579    2.4750    0.0000 C   0  0  1  0  0  0  0  0  0  0  0  0
    3.5724    2.0625    0.0000 O   0  0  0  0  0  0  0  0  0  0  0  0
    2.1434    2.0625    0.0000 C   0  0  1  0  0  0  0  0  0  0  0  0
    2.1434    1.2375    0.0000 O   0  0  0  0  0  0  0  0  0  0  0  0
    2.1434    4.5375    0.0000 C   0  0  0  0  0  0  0  0  0  0  0  0
  1  2  1  1  0  0  0
  2  3  1  0  0  0  0
  3  4  2  0  0  0  0
  4  5  1  0  0  0  0
  5  6  1  0  0  0  0
  6  7  2  0  0  0  0
  7  8  1  0  0  0  0
  3  8  1  0  0  0  0
  8  9  2  0  0  0  0
  7 10  1  0  0  0  0
 10 11  2  0  0  0  0
 11 12  1  0  0  0  0
 12 13  2  0  0  0  0
  6 13  1  0  0  0  0
 12 14  1  0  0  0  0
 10 15  1  0  0  0  0
  4 16  1  0  0  0  0
 16 17  2  0  0  0  0
 17 18  1  0  0  0  0
 18 19  2  0  0  0  0
 19 20  1  0  0  0  0
 19 21  1  0  0  0  0
 21 22  2  0  0  0  0
 16 22  1  0  0  0  0
 18 23  1  0  0  0  0
  1 24  1  0  0  0  0
 24 25  1  0  0  0  0
 25 26  1  0  0  0  0
 26 27  1  6  0  0  0
 26 28  1  0  0  0  0
 28 29  1  1  0  0  0
 28 30  1  0  0  0  0
  1 30  1  0  0  0  0
 30 31  1  6  0  0  0
 25 32  1  1  0  0  0
 32 33  1  0  0  0  0
 34 33  1  6  0  0  0
 34 35  1  0  0  0  0
 35 36  1  0  0  0  0
 36 37  1  0  0  0  0
 37 38  1  6  0  0  0
 37 39  1  0  0  0  0
 39 40  1  1  0  0  0
 39 41  1  0  0  0  0
 34 41  1  0  0  0  0
 41 42  1  1  0  0  0
 36 43  1  1  0  0  0
M  END
>  <Name>
Rutin

>  <CAS>
153-18-4

>  <Formula>
C27H30O16

>  <MolWt>
610.52 

>  <Bioactivity>
Rutin, a flavonol glycoside found in many plants including buckwheat; tobacco; forsythia; hydrangea; viola, etc., which possesses healthy effects for human.

>  <Pathways>
Enzyme

>  <Target>
AKR

>  <Receptor>
AKR

>  <Reference>
1. Navarro-Nunez L, et al. J Agric Food Chem, 2008, 56(9), 2970-2976.

$$$$
T0687
  Mrv1561503291623562D          

 30 32  0  0  1  0            999 V2000
    0.7145   -1.2375    0.0000 C   0  0  1  0  0  0  0  0  0  0  0  0
    0.0000   -1.6500    0.0000 C   0  0  1  0  0  0  0  0  0  0  0  0
    0.0000   -2.4750    0.0000 O   0  0  0  0  0  0  0  0  0  0  0  0
   -0.7145   -2.8875    0.0000 C   0  0  0  0  0  0  0  0  0  0  0  0
   -0.7145   -3.7125    0.0000 C   0  0  0  0  0  0  0  0  0  0  0  0
   -0.7145   -4.5375    0.0000 C   0  0  0  0  0  0  0  0  0  0  0  0
   -1.4289   -4.9500    0.0000 C   0  0  0  0  0  0  0  0  0  0  0  0
    0.1105   -3.7125    0.0000 C   0  0  0  0  0  0  0  0  0  0  0  0
   -1.5395   -3.7125    0.0000 C   0  0  0  0  0  0  0  0  0  0  0  0
   -1.4289   -2.4750    0.0000 O   0  0  0  0  0  0  0  0  0  0  0  0
   -0.7145   -1.2375    0.0000 C   0  0  0  0  0  0  0  0  0  0  0  0
   -0.7145   -0.4125    0.0000 C   0  0  1  0  0  0  0  0  0  0  0  0
   -1.4289    0.0000    0.0000 C   0  0  0  0  0  0  0  0  0  0  0  0
   -0.0000    0.0000    0.0000 C   0  0  0  0  0  0  0  0  0  0  0  0
    0.7145   -0.4125    0.0000 C   0  0  0  0  0  0  0  0  0  0  0  0
    1.4289    0.0000    0.0000 C   0  0  0  0  0  0  0  0  0  0  0  0
    2.1434   -0.4125    0.0000 C   0  0  0  0  0  0  0  0  0  0  0  0
    2.1434   -1.2375    0.0000 C   0  0  1  0  0  0  0  0  0  0  0  0
    1.4289   -1.6500    0.0000 C   0  0  2  0  0  0  0  0  0  0  0  0
    1.4289   -2.4750    0.0000 C   0  0  0  0  0  0  0  0  0  0  0  0
    2.1434   -2.8875    0.0000 C   0  0  0  0  0  0  0  0  0  0  0  0
    2.1434   -3.7125    0.0000 C   0  0  2  0  0  0  0  0  0  0  0  0
    1.4289   -4.1250    0.0000 C   0  0  0  0  0  0  0  0  0  0  0  0
    1.4289   -4.9500    0.0000 C   0  0  2  0  0  0  0  0  0  0  0  0
    2.1434   -5.3625    0.0000 C   0  0  0  0  0  0  0  0  0  0  0  0
    2.8579   -4.9500    0.0000 C   0  0  0  0  0  0  0  0  0  0  0  0
    2.8579   -4.1250    0.0000 O   0  0  0  0  0  0  0  0  0  0  0  0
    3.5724   -5.3625    0.0000 O   0  0  0  0  0  0  0  0  0  0  0  0
    0.7145   -5.3625    0.0000 O   0  0  0  0  0  0  0  0  0  0  0  0
    2.8579   -1.6500    0.0000 C   0  0  0  0  0  0  0  0  0  0  0  0
  1  2  1  0  0  0  0
  2  3  1  1  0  0  0
  3  4  1  0  0  0  0
  4  5  1  0  0  0  0
  5  6  1  0  0  0  0
  6  7  1  0  0  0  0
  5  8  1  0  0  0  0
  5  9  1  0  0  0  0
  4 10  2  0  0  0  0
  2 11  1  0  0  0  0
 11 12  1  0  0  0  0
 12 13  1  1  0  0  0
 12 14  1  0  0  0  0
 14 15  2  0  0  0  0
  1 15  1  1  0  0  0
 15 16  1  0  0  0  0
 16 17  2  0  0  0  0
 17 18  1  0  0  0  0
 18 19  1  0  0  0  0
  1 19  1  0  0  0  0
 19 20  1  6  0  0  0
 20 21  1  0  0  0  0
 22 21  1  1  0  0  0
 22 23  1  0  0  0  0
 23 24  1  0  0  0  0
 24 25  1  0  0  0  0
 25 26  1  0  0  0  0
 26 27  1  0  0  0  0
 22 27  1  0  0  0  0
 26 28  2  0  0  0  0
 24 29  1  6  0  0  0
 18 30  1  6  0  0  0
M  END
>  <Name>
Simvastatin

>  <CAS>
79902-63-9

>  <Formula>
C25H38O5

>  <MolWt>
418.57 

>  <Bioactivity>
Simvastatin is an HMGCR (HMG-CoA reductase) inhibitor with anti-proliferative properties. This compound has been shown to modulate purified bovine pituitary 20 S proteasome via mild stimulation of chymotrypsin-like activity and inhibition of peptidylglutamylpeptide hydrolyzing activity. 

>  <Pathways>
Metabolism

>  <Target>
MRP inhibitor; HMG-CoA Reductase inhibitor; Integrin

>  <Receptor>
MRP1; HMG-CoA Reductase ; Integrin beta-2

>  <Reference>
1. Slater EE, et al. Drugs. 1988, 36 Suppl 3, 72-82.

$$$$
T1083
  Mrv1561503291623562D          

 13 14  0  0  0  0            999 V2000
   -0.6284   -0.6979    0.0000 C   0  0  0  0  0  0  0  0  0  0  0  0
   -0.1435   -1.3654    0.0000 N   0  0  0  0  0  0  0  0  0  0  0  0
    0.6411   -1.1104    0.0000 C   0  0  0  0  0  0  0  0  0  0  0  0
    0.6411   -0.2854    0.0000 C   0  0  0  0  0  0  0  0  0  0  0  0
    1.3556    0.1271    0.0000 C   0  0  0  0  0  0  0  0  0  0  0  0
    2.0701   -0.2854    0.0000 N   0  0  0  0  0  0  0  0  0  0  0  0
    2.7845    0.1271    0.0000 C   0  0  0  0  0  0  0  0  0  0  0  0
    2.0701   -1.1104    0.0000 C   0  0  0  0  0  0  0  0  0  0  0  0
    1.3556   -1.5229    0.0000 N   0  0  0  0  0  0  0  0  0  0  0  0
    1.3556   -2.3479    0.0000 C   0  0  0  0  0  0  0  0  0  0  0  0
    2.7845   -1.5229    0.0000 O   0  0  0  0  0  0  0  0  0  0  0  0
    1.3556    0.9521    0.0000 O   0  0  0  0  0  0  0  0  0  0  0  0
   -0.1435   -0.0305    0.0000 N   0  0  0  0  0  0  0  0  0  0  0  0
  1  2  2  0  0  0  0
  2  3  1  0  0  0  0
  3  4  2  0  0  0  0
  4  5  1  0  0  0  0
  5  6  1  0  0  0  0
  6  7  1  0  0  0  0
  6  8  1  0  0  0  0
  8  9  1  0  0  0  0
  3  9  1  0  0  0  0
  9 10  1  0  0  0  0
  8 11  2  0  0  0  0
  5 12  2  0  0  0  0
  4 13  1  0  0  0  0
  1 13  1  0  0  0  0
M  END
>  <Name>
Theophylline

>  <CAS>
58-55-9

>  <Formula>
C7H8N4O2

>  <MolWt>
180.16 

>  <Bioactivity>
A methyl xanthine derivative from tea with diuretic, smooth muscle relaxant, bronchial dilation, cardiac and central nervous system stimulant activities. Theophylline inhibits the 3',5'-CYCLIC NUCLEOTIDE PHOSPHODIESTERASE that degrades CYCLIC AMP thus potentiates the actions of agents that act through ADENYLATE CYCLASE and cyclic AMP. 

>  <Pathways>
Metabolism; GPCR/G Protein; Chromatin/Epigenetic

>  <Target>
PDE inhibitors;HDAC activator; Adenosine receptor antagonist

>  <Receptor>
PDE;HDAC2; Adenosine receptor

>  <Reference>
1. Philipp S, et al. Cardiovasc Res. 2006 May 1;70(2):308-14. 

$$$$
T0973
  Mrv1561503291623562D          

 12 12  0  0  0  0            999 V2000
    1.4289    0.8250    0.0000 C   0  0  0  0  0  0  0  0  0  0  0  0
    1.4289    0.0000    0.0000 N   0  0  0  0  0  0  0  0  0  0  0  0
    0.7145   -0.4125    0.0000 C   0  0  0  0  0  0  0  0  0  0  0  0
   -0.0000    0.0000    0.0000 C   0  0  0  0  0  0  0  0  0  0  0  0
   -0.7145   -0.4125    0.0000 O   0  0  0  0  0  0  0  0  0  0  0  0
   -0.0000    0.8250    0.0000 C   0  0  0  0  0  0  0  0  0  0  0  0
    0.7145    1.2375    0.0000 C   0  0  0  0  0  0  0  0  0  0  0  0
    0.7145    2.0625    0.0000 C   0  0  0  0  0  0  0  0  0  0  0  0
    0.0000    2.4750    0.0000 O   0  0  0  0  0  0  0  0  0  0  0  0
   -0.7145    1.2375    0.0000 C   0  0  0  0  0  0  0  0  0  0  0  0
   -0.7145    2.0625    0.0000 O   0  0  0  0  0  0  0  0  0  0  0  0
    0.7145   -1.2375    0.0000 C   0  0  0  0  0  0  0  0  0  0  0  0
  1  2  2  0  0  0  0
  2  3  1  0  0  0  0
  3  4  2  0  0  0  0
  4  5  1  0  0  0  0
  4  6  1  0  0  0  0
  6  7  2  0  0  0  0
  1  7  1  0  0  0  0
  7  8  1  0  0  0  0
  8  9  1  0  0  0  0
  6 10  1  0  0  0  0
 10 11  1  0  0  0  0
  3 12  1  0  0  0  0
M  END
>  <Name>
Pyridoxine

>  <CAS>
65-23-6

>  <Formula>
C8H11NO3

>  <MolWt>
169.18 

>  <Bioactivity>
Pyridoxine is the 4-methanol form of vitamin B6 and is converted to pyridoxal 5-phosphate in the body. Although pyridoxine and vitamin B6 are still frequently used as synonyms, especially by medical researchers, this practice is erroneous and sometimes misleading. 

>  <Pathways>
Cell Cycle/Checkpoint

>  <Target>
PLK

>  <Receptor>
PLK

>  <Reference>
1. Adams JB, et al. J Altern Complement Med. 2006 Jan-Feb;12(1):59-63.

$$$$
606-17-7
  Mrv1561503291623562D          

 34 35  0  0  0  0            999 V2000
    0.7145   -3.7125    0.0000 C   0  0  0  0  0  0  0  0  0  0  0  0
    1.4289   -4.1250    0.0000 C   0  0  0  0  0  0  0  0  0  0  0  0
    1.4289   -4.9500    0.0000 C   0  0  0  0  0  0  0  0  0  0  0  0
    0.7145   -5.3625    0.0000 C   0  0  0  0  0  0  0  0  0  0  0  0
    0.0000   -4.9500    0.0000 C   0  0  0  0  0  0  0  0  0  0  0  0
    0.0000   -4.1250    0.0000 C   0  0  0  0  0  0  0  0  0  0  0  0
   -0.7145   -3.7125    0.0000 I   0  0  0  0  0  0  0  0  0  0  0  0
   -0.7145   -5.3625    0.0000 C   0  0  0  0  0  0  0  0  0  0  0  0
   -1.4289   -4.9500    0.0000 O   0  0  0  0  0  0  0  0  0  0  0  0
   -0.7145   -6.1875    0.0000 O   0  0  0  0  0  0  0  0  0  0  0  0
    0.7145   -6.1875    0.0000 I   0  0  0  0  0  0  0  0  0  0  0  0
    2.1434   -5.3625    0.0000 N   0  0  0  0  0  0  0  0  0  0  0  0
    2.8579   -4.9500    0.0000 C   0  0  0  0  0  0  0  0  0  0  0  0
    3.5724   -5.3625    0.0000 C   0  0  0  0  0  0  0  0  0  0  0  0
    4.2868   -4.9500    0.0000 C   0  0  0  0  0  0  0  0  0  0  0  0
    5.0013   -5.3625    0.0000 C   0  0  0  0  0  0  0  0  0  0  0  0
    5.7158   -4.9500    0.0000 C   0  0  0  0  0  0  0  0  0  0  0  0
    6.4302   -5.3625    0.0000 C   0  0  0  0  0  0  0  0  0  0  0  0
    7.1447   -4.9500    0.0000 N   0  0  0  0  0  0  0  0  0  0  0  0
    7.8592   -5.3625    0.0000 C   0  0  0  0  0  0  0  0  0  0  0  0
    8.5737   -4.9500    0.0000 C   0  0  0  0  0  0  0  0  0  0  0  0
    9.2881   -5.3625    0.0000 C   0  0  0  0  0  0  0  0  0  0  0  0
    9.2881   -6.1875    0.0000 C   0  0  0  0  0  0  0  0  0  0  0  0
   10.0026   -6.6000    0.0000 I   0  0  0  0  0  0  0  0  0  0  0  0
    8.5737   -6.6000    0.0000 C   0  0  0  0  0  0  0  0  0  0  0  0
    7.8592   -6.1875    0.0000 C   0  0  0  0  0  0  0  0  0  0  0  0
    7.1447   -6.6000    0.0000 I   0  0  0  0  0  0  0  0  0  0  0  0
   10.0026   -4.9500    0.0000 C   0  0  0  0  0  0  0  0  0  0  0  0
   10.7171   -5.3625    0.0000 O   0  0  0  0  0  0  0  0  0  0  0  0
   10.0026   -4.1250    0.0000 O   0  0  0  0  0  0  0  0  0  0  0  0
    8.5737   -4.1250    0.0000 I   0  0  0  0  0  0  0  0  0  0  0  0
    6.4302   -6.1875    0.0000 O   0  0  0  0  0  0  0  0  0  0  0  0
    2.8579   -4.1250    0.0000 O   0  0  0  0  0  0  0  0  0  0  0  0
    2.1434   -3.7125    0.0000 I   0  0  0  0  0  0  0  0  0  0  0  0
  1  2  2  0  0  0  0
  2  3  1  0  0  0  0
  3  4  2  0  0  0  0
  4  5  1  0  0  0  0
  5  6  2  0  0  0  0
  1  6  1  0  0  0  0
  6  7  1  0  0  0  0
  5  8  1  0  0  0  0
  8  9  1  0  0  0  0
  8 10  2  0  0  0  0
  4 11  1  0  0  0  0
  3 12  1  0  0  0  0
 12 13  1  0  0  0  0
 13 14  1  0  0  0  0
 14 15  1  0  0  0  0
 15 16  1  0  0  0  0
 16 17  1  0  0  0  0
 17 18  1  0  0  0  0
 18 19  1  0  0  0  0
 19 20  1  0  0  0  0
 20 21  2  0  0  0  0
 21 22  1  0  0  0  0
 22 23  2  0  0  0  0
 23 24  1  0  0  0  0
 23 25  1  0  0  0  0
 25 26  2  0  0  0  0
 20 26  1  0  0  0  0
 26 27  1  0  0  0  0
 22 28  1  0  0  0  0
 28 29  1  0  0  0  0
 28 30  2  0  0  0  0
 21 31  1  0  0  0  0
 18 32  2  0  0  0  0
 13 33  2  0  0  0  0
  2 34  1  0  0  0  0
M  END
>  <Name>
Iodipamide

>  <CAS>
606-17-7

>  <Formula>
C20H14I6N2O6

>  <MolWt>
1139.76 

>  <Bioactivity>
A water-soluble radiographic contrast media for cholecystography and intravenous cholangiography.

>  <Pathways>
Others

>  <Target>
Others

>  <Receptor>
Others

>  <Reference>
1. Fidler JL, et al. AJR Am J Roentgenol. 2013 Aug; 201(2):W271-82.

$$$$
58-22-0
  Mrv1561503291623562D          

 21 24  0  0  1  0            999 V2000
    1.5596   -2.8327    0.0000 C   0  0  1  0  0  0  0  0  0  0  0  0
    2.0914   -3.4634    0.0000 C   0  0  1  0  0  0  0  0  0  0  0  0
    2.9035   -3.3182    0.0000 C   0  0  2  0  0  0  0  0  0  0  0  0
    3.1838   -2.5422    0.0000 C   0  0  0  0  0  0  0  0  0  0  0  0
    3.9960   -2.3970    0.0000 C   0  0  0  0  0  0  0  0  0  0  0  0
    4.5278   -3.0277    0.0000 C   0  0  0  0  0  0  0  0  0  0  0  0
    5.3399   -2.8825    0.0000 O   0  0  0  0  0  0  0  0  0  0  0  0
    4.2475   -3.8037    0.0000 C   0  0  0  0  0  0  0  0  0  0  0  0
    3.4354   -3.9489    0.0000 C   0  0  0  0  0  0  0  0  0  0  0  0
    2.6520   -1.9115    0.0000 C   0  0  0  0  0  0  0  0  0  0  0  0
    1.8399   -2.0567    0.0000 C   0  0  0  0  0  0  0  0  0  0  0  0
    2.6232   -4.0941    0.0000 C   0  0  0  0  0  0  0  0  0  0  0  0
    1.8111   -4.2393    0.0000 C   0  0  0  0  0  0  0  0  0  0  0  0
    0.9990   -4.3845    0.0000 C   0  0  0  0  0  0  0  0  0  0  0  0
    0.4672   -3.7538    0.0000 C   0  0  1  0  0  0  0  0  0  0  0  0
    0.7475   -2.9779    0.0000 C   0  0  1  0  0  0  0  0  0  0  0  0
    0.0962   -2.4715    0.0000 C   0  0  0  0  0  0  0  0  0  0  0  0
   -0.5867   -2.9345    0.0000 C   0  0  0  0  0  0  0  0  0  0  0  0
   -0.3574   -3.7270    0.0000 C   0  0  2  0  0  0  0  0  0  0  0  0
   -0.8637   -4.3783    0.0000 O   0  0  0  0  0  0  0  0  0  0  0  0
    0.1073   -4.4962    0.0000 C   0  0  0  0  0  0  0  0  0  0  0  0
  1  2  1  0  0  0  0
  2  3  1  0  0  0  0
  3  4  1  0  0  0  0
  4  5  2  0  0  0  0
  5  6  1  0  0  0  0
  6  7  2  0  0  0  0
  6  8  1  0  0  0  0
  8  9  1  0  0  0  0
  3  9  1  0  0  0  0
  4 10  1  0  0  0  0
 10 11  1  0  0  0  0
  1 11  1  6  0  0  0
  3 12  1  1  0  0  0
  2 13  1  1  0  0  0
 13 14  1  0  0  0  0
 14 15  1  0  0  0  0
 15 16  1  0  0  0  0
  1 16  1  0  0  0  0
 16 17  1  1  0  0  0
 17 18  1  0  0  0  0
 18 19  1  0  0  0  0
 15 19  1  0  0  0  0
 19 20  1  1  0  0  0
 15 21  1  1  0  0  0
M  END
>  <Name>
Testosterone

>  <CAS>
58-22-0

>  <Formula>
C19H28O2

>  <MolWt>
288.42 

>  <Bioactivity>
A potent androgenic steroid and major product secreted by the LEYDIG CELLS of the TESTIS. Its production is stimulated by LUTEINIZING HORMONE from the PITUITARY GLAND. In turn, testosterone exerts feedback control of the pituitary LH and FSH secretion. Depending on the tissues, testosterone can be further converted to DIHYDROTESTOSTERONE or ESTRADIOL. 

>  <Pathways>
Endocrinology/ Hormones

>  <Target>
Androgen Receptor agonist

>  <Receptor>
Androgens receptor

>  <Reference>
1. Omwancha J, Brown TR. Curr Opin Investig Drugs. 2006 Oct; 7(10):873-81.

$$$$
T1154
  Mrv1561503291623562D          

 57 62  0  0  1  0            999 V2000
    4.5572    3.1337    0.0000 C   0  0  2  0  0  0  0  0  0  0  0  0
    5.2161    2.6024    0.0000 C   0  0  0  0  0  0  0  0  0  0  0  0
    4.9160    1.8095    0.0000 C   0  0  0  0  0  0  0  0  0  0  0  0
    4.0783    1.8487    0.0000 C   0  0  0  0  0  0  0  0  0  0  0  0
    3.8921    2.6460    0.0000 O   0  0  0  0  0  0  0  0  0  0  0  0
    3.5606    1.1868    0.0000 C   0  0  0  0  0  0  0  0  0  0  0  0
    3.9108    0.4399    0.0000 C   0  0  0  0  0  0  0  0  0  0  0  0
    4.7419    0.3461    0.0000 C   0  0  0  0  0  0  0  0  0  0  0  0
    5.2658    1.0127    0.0000 C   0  0  0  0  0  0  0  0  0  0  0  0
    6.0917    0.8487    0.0000 C   0  0  0  0  0  0  0  0  0  0  0  0
    6.3719    0.0728    0.0000 C   0  0  0  0  0  0  0  0  0  0  0  0
    7.1964    0.0994    0.0000 N   0  0  0  0  0  0  0  0  0  0  0  0
    7.7680   -0.4955    0.0000 C   0  0  0  0  0  0  0  0  0  0  0  0
    8.5690   -0.2979    0.0000 C   0  0  0  0  0  0  0  0  0  0  0  0
    8.7984    0.4945    0.0000 C   0  0  0  0  0  0  0  0  0  0  0  0
    8.2268    1.0894    0.0000 C   0  0  0  0  0  0  0  0  0  0  0  0
    7.4258    0.8919    0.0000 C   0  0  0  0  0  0  0  0  0  0  0  0
    6.7431    1.3550    0.0000 N   0  0  0  0  0  0  0  0  0  0  0  0
    9.5994    0.6921    0.0000 C   0  0  0  0  0  0  0  0  0  0  0  0
    5.8664   -0.5871    0.0000 C   0  0  0  0  0  0  0  0  0  0  0  0
    5.0606   -0.4210    0.0000 C   0  0  0  0  0  0  0  0  0  0  0  0
    4.5353   -1.0572    0.0000 O   0  0  0  0  0  0  0  0  0  0  0  0
    5.6574   -1.4259    0.0000 N   0  0  0  0  0  0  0  0  0  0  0  0
    5.2166   -2.1515    0.0000 C   0  0  0  0  0  0  0  0  0  0  0  0
    4.5009   -2.6544    0.0000 C   0  0  0  0  0  0  0  0  0  0  0  0
    3.6659   -2.8955    0.0000 C   0  0  0  0  0  0  0  0  0  0  0  0
    2.7810   -2.8851    0.0000 C   0  0  0  0  0  0  0  0  0  0  0  0
    1.9867   -2.6462    0.0000 C   0  0  0  0  0  0  0  0  0  0  0  0
    1.2808   -2.2084    0.0000 C   0  0  1  0  0  0  0  0  0  0  0  0
    0.7144   -1.6039    0.0000 C   0  0  1  0  0  0  0  0  0  0  0  0
    0.3238   -0.8735    0.0000 C   0  0  1  0  0  0  0  0  0  0  0  0
   -0.4483   -1.1642    0.0000 C   0  0  0  0  0  0  0  0  0  0  0  0
    0.1356   -0.0668    0.0000 C   0  0  2  0  0  0  0  0  0  0  0  0
    0.1625    0.7610    0.0000 C   0  0  2  0  0  0  0  0  0  0  0  0
    0.4024    1.5531    0.0000 C   0  0  1  0  0  0  0  0  0  0  0  0
    0.8375    2.2551    0.0000 C   0  0  1  0  0  0  0  0  0  0  0  0
    1.4354    2.8229    0.0000 C   0  0  2  0  0  0  0  0  0  0  0  0
    2.1584    3.2294    0.0000 C   0  0  0  0  0  0  0  0  0  0  0  0
    2.9664    3.4534    0.0000 C   0  0  0  0  0  0  0  0  0  0  0  0
    3.8135    3.5712    0.0000 O   0  0  0  0  0  0  0  0  0  0  0  0
    0.9455    3.4867    0.0000 O   0  0  0  0  0  0  0  0  0  0  0  0
    1.2753    4.2429    0.0000 C   0  0  0  0  0  0  0  0  0  0  0  0
    0.1976    2.7758    0.0000 C   0  0  0  0  0  0  0  0  0  0  0  0
   -0.3494    1.8928    0.0000 O   0  0  0  0  0  0  0  0  0  0  0  0
   -1.0196    1.4117    0.0000 C   0  0  0  0  0  0  0  0  0  0  0  0
   -0.9379    0.5907    0.0000 C   0  0  0  0  0  0  0  0  0  0  0  0
   -1.7713    1.7514    0.0000 O   0  0  0  0  0  0  0  0  0  0  0  0
   -0.6515    0.8951    0.0000 C   0  0  0  0  0  0  0  0  0  0  0  0
   -0.6854   -0.1478    0.0000 O   0  0  0  0  0  0  0  0  0  0  0  0
    0.0439   -2.0846    0.0000 O   0  0  0  0  0  0  0  0  0  0  0  0
    0.7579   -2.8465    0.0000 C   0  0  0  0  0  0  0  0  0  0  0  0
    4.8573   -3.3985    0.0000 C   0  0  0  0  0  0  0  0  0  0  0  0
    5.8191   -2.7151    0.0000 O   0  0  0  0  0  0  0  0  0  0  0  0
    3.4299   -0.2305    0.0000 O   0  0  0  0  0  0  0  0  0  0  0  0
    2.7408    1.2795    0.0000 C   0  0  0  0  0  0  0  0  0  0  0  0
    6.0122    2.8186    0.0000 O   0  0  0  0  0  0  0  0  0  0  0  0
    5.3811    3.1754    0.0000 C   0  0  0  0  0  0  0  0  0  0  0  0
  1  2  1  0  0  0  0
  2  3  1  0  0  0  0
  3  4  2  0  0  0  0
  4  5  1  0  0  0  0
  1  5  1  0  0  0  0
  4  6  1  0  0  0  0
  6  7  2  0  0  0  0
  7  8  1  0  0  0  0
  8  9  2  0  0  0  0
  3  9  1  0  0  0  0
  9 10  1  0  0  0  0
 10 11  2  0  0  0  0
 11 12  1  0  0  0  0
 12 13  1  0  0  0  0
 13 14  2  0  0  0  0
 14 15  1  0  0  0  0
 15 16  2  0  0  0  0
 16 17  1  0  0  0  0
 12 17  1  0  0  0  0
 17 18  2  0  0  0  0
 10 18  1  0  0  0  0
 15 19  1  0  0  0  0
 11 20  1  0  0  0  0
 20 21  2  0  0  0  0
  8 21  1  0  0  0  0
 21 22  1  0  0  0  0
 20 23  1  0  0  0  0
 23 24  1  0  0  0  0
 24 25  1  0  0  0  0
 25 26  2  0  0  0  0
 26 27  1  0  0  0  0
 27 28  2  0  0  0  0
 28 29  1  0  0  0  0
 29 30  1  0  0  0  0
 30 31  1  0  0  0  0
 31 32  1  1  0  0  0
 31 33  1  0  0  0  0
 33 34  1  0  0  0  0
 34 35  1  0  0  0  0
 35 36  1  0  0  0  0
 36 37  1  0  0  0  0
 37 38  1  0  0  0  0
 38 39  2  0  0  0  0
 39 40  1  0  0  0  0
  1 40  1  0  0  0  0
 37 41  1  1  0  0  0
 41 42  1  0  0  0  0
 36 43  1  6  0  0  0
 35 44  1  6  0  0  0
 44 45  1  0  0  0  0
 45 46  1  0  0  0  0
 45 47  2  0  0  0  0
 34 48  1  1  0  0  0
 33 49  1  1  0  0  0
 30 50  1  6  0  0  0
 29 51  1  6  0  0  0
 25 52  1  0  0  0  0
 24 53  2  0  0  0  0
  7 54  1  0  0  0  0
  6 55  1  0  0  0  0
  2 56  2  0  0  0  0
  1 57  1  1  0  0  0
M  END
>  <Name>
Rifaximin

>  <CAS>
80621-81-4

>  <Formula>
C43H51N3O11

>  <MolWt>
785.88 

>  <Bioactivity>
Rifaximin(Xifaxan), an orally administered, semi-synthetic, nonsystemic antibiotic derived from rifamycin SV with antibacterial activity. Rifaximin binds to the beta-subunit of bacterial DNA-dependent RNA polymerase, inhibiting bacterial RNA synthesis and bacterial cell growth. As rifaximin is not well absorbed, its antibacterial activity is largely localized to the gastrointestinal tract. 

>  <Pathways>
DNA Damage/DNA Repair

>  <Target>
DNA/RNA Synthesis inhibitor

>  <Receptor>
DNA/RNA synthesis

>  <Reference>
1. Cheng J, et al. J Pharmacol Exp Ther. 2010 Jul 13. 

$$$$
T0853
  Mrv1561503291623562D          

 19 21  0  0  0  0            999 V2000
   -0.6284   -0.6979    0.0000 C   0  0  0  0  0  0  0  0  0  0  0  0
   -0.1435   -1.3654    0.0000 N   0  0  0  0  0  0  0  0  0  0  0  0
    0.6411   -1.1104    0.0000 C   0  0  0  0  0  0  0  0  0  0  0  0
    0.6411   -0.2854    0.0000 C   0  0  0  0  0  0  0  0  0  0  0  0
   -0.1435   -0.0305    0.0000 N   0  0  0  0  0  0  0  0  0  0  0  0
   -0.3984    0.7541    0.0000 C   0  0  0  0  0  0  0  0  0  0  0  0
   -1.1831    1.0091    0.0000 O   0  0  0  0  0  0  0  0  0  0  0  0
   -1.1831    1.8341    0.0000 C   0  0  0  0  0  0  0  0  0  0  0  0
   -1.8505    2.3190    0.0000 C   0  0  0  0  0  0  0  0  0  0  0  0
   -1.7643    3.1395    0.0000 O   0  0  0  0  0  0  0  0  0  0  0  0
   -0.3984    2.0890    0.0000 C   0  0  0  0  0  0  0  0  0  0  0  0
    0.0865    1.4216    0.0000 C   0  0  0  0  0  0  0  0  0  0  0  0
    0.9115    1.4216    0.0000 O   0  0  0  0  0  0  0  0  0  0  0  0
   -0.1435    2.8736    0.0000 O   0  0  0  0  0  0  0  0  0  0  0  0
    1.3556    0.1271    0.0000 N   0  0  0  0  0  0  0  0  0  0  0  0
    2.0701   -0.2854    0.0000 C   0  0  0  0  0  0  0  0  0  0  0  0
    2.0701   -1.1104    0.0000 N   0  0  0  0  0  0  0  0  0  0  0  0
    1.3556   -1.5229    0.0000 C   0  0  0  0  0  0  0  0  0  0  0  0
    1.3556   -2.3479    0.0000 N   0  0  0  0  0  0  0  0  0  0  0  0
  1  2  2  0  0  0  0
  2  3  1  0  0  0  0
  3  4  2  0  0  0  0
  4  5  1  0  0  0  0
  1  5  1  0  0  0  0
  5  6  1  0  0  0  0
  6  7  1  0  0  0  0
  7  8  1  0  0  0  0
  8  9  1  0  0  0  0
  9 10  1  0  0  0  0
  8 11  1  0  0  0  0
 11 12  1  0  0  0  0
  6 12  1  0  0  0  0
 12 13  1  0  0  0  0
 11 14  1  0  0  0  0
  4 15  1  0  0  0  0
 15 16  2  0  0  0  0
 16 17  1  0  0  0  0
 17 18  2  0  0  0  0
  3 18  1  0  0  0  0
 18 19  1  0  0  0  0
M  END
>  <Name>
Adenosine

>  <CAS>
58-61-7

>  <Formula>
C10H13N5O4

>  <MolWt>
267.24 

>  <Bioactivity>
Adenosine is a nucleoside composed of a molecule of adenine attached to a ribose sugar molecule (ribofuranose) moiety via a ?-N9-glycosidic bond.

>  <Pathways>
DNA Damage/DNA Repair

>  <Target>
Nucleoside Antimetabolite/Analogue

>  <Receptor>
Nucleoside

>  <Reference>
1. Zhou JZ, et al. Oncogene. 2015 Apr 2;34(14):1831-42. 

$$$$
84-80-0
  Mrv1561503291623562D          

 33 34  0  0  0  0            999 V2000
   -2.1434    3.7125    0.0000 C   0  0  0  0  0  0  0  0  0  0  0  0
   -1.4289    4.1250    0.0000 C   0  0  0  0  0  0  0  0  0  0  0  0
   -1.4289    4.9500    0.0000 C   0  0  0  0  0  0  0  0  0  0  0  0
   -2.1434    5.3625    0.0000 C   0  0  0  0  0  0  0  0  0  0  0  0
   -2.8579    4.9500    0.0000 C   0  0  0  0  0  0  0  0  0  0  0  0
   -2.8579    4.1250    0.0000 C   0  0  0  0  0  0  0  0  0  0  0  0
   -0.7145    5.3625    0.0000 C   0  0  0  0  0  0  0  0  0  0  0  0
    0.0000    4.9500    0.0000 C   0  0  0  0  0  0  0  0  0  0  0  0
    0.0000    4.1250    0.0000 C   0  0  0  0  0  0  0  0  0  0  0  0
   -0.7145    3.7125    0.0000 C   0  0  0  0  0  0  0  0  0  0  0  0
   -0.7145    2.8875    0.0000 O   0  0  0  0  0  0  0  0  0  0  0  0
    0.7145    3.7125    0.0000 C   0  0  0  0  0  0  0  0  0  0  0  0
    1.4289    4.1250    0.0000 C   0  0  0  0  0  0  0  0  0  0  0  0
    2.1434    3.7125    0.0000 C   0  0  0  0  0  0  0  0  0  0  0  0
    2.8579    4.1250    0.0000 C   0  0  0  0  0  0  0  0  0  0  0  0
    3.5724    3.7125    0.0000 C   0  0  0  0  0  0  0  0  0  0  0  0
    4.2868    4.1250    0.0000 C   0  0  0  0  0  0  0  0  0  0  0  0
    5.0013    3.7125    0.0000 C   0  0  0  0  0  0  0  0  0  0  0  0
    5.7158    4.1250    0.0000 C   0  0  0  0  0  0  0  0  0  0  0  0
    6.4302    3.7125    0.0000 C   0  0  0  0  0  0  0  0  0  0  0  0
    7.1447    4.1250    0.0000 C   0  0  0  0  0  0  0  0  0  0  0  0
    7.8592    3.7125    0.0000 C   0  0  0  0  0  0  0  0  0  0  0  0
    8.5737    4.1250    0.0000 C   0  0  0  0  0  0  0  0  0  0  0  0
    9.2881    3.7125    0.0000 C   0  0  0  0  0  0  0  0  0  0  0  0
   10.0026    4.1250    0.0000 C   0  0  0  0  0  0  0  0  0  0  0  0
   10.7171    3.7125    0.0000 C   0  0  0  0  0  0  0  0  0  0  0  0
   11.4315    4.1250    0.0000 C   0  0  0  0  0  0  0  0  0  0  0  0
   10.7171    2.8875    0.0000 C   0  0  0  0  0  0  0  0  0  0  0  0
    7.8592    2.8875    0.0000 C   0  0  0  0  0  0  0  0  0  0  0  0
    5.0013    2.8875    0.0000 C   0  0  0  0  0  0  0  0  0  0  0  0
    2.1434    2.8875    0.0000 C   0  0  0  0  0  0  0  0  0  0  0  0
    0.7145    5.3625    0.0000 C   0  0  0  0  0  0  0  0  0  0  0  0
   -0.7145    6.1875    0.0000 O   0  0  0  0  0  0  0  0  0  0  0  0
  1  2  2  0  0  0  0
  2  3  1  0  0  0  0
  3  4  2  0  0  0  0
  4  5  1  0  0  0  0
  5  6  2  0  0  0  0
  1  6  1  0  0  0  0
  3  7  1  0  0  0  0
  7  8  1  0  0  0  0
  8  9  2  0  0  0  0
  9 10  1  0  0  0  0
  2 10  1  0  0  0  0
 10 11  2  0  0  0  0
  9 12  1  0  0  0  0
 12 13  1  0  0  0  0
 13 14  2  0  0  0  0
 14 15  1  0  0  0  0
 15 16  1  0  0  0  0
 16 17  1  0  0  0  0
 17 18  1  0  0  0  0
 18 19  1  0  0  0  0
 19 20  1  0  0  0  0
 20 21  1  0  0  0  0
 21 22  1  0  0  0  0
 22 23  1  0  0  0  0
 23 24  1  0  0  0  0
 24 25  1  0  0  0  0
 25 26  1  0  0  0  0
 26 27  1  0  0  0  0
 26 28  1  0  0  0  0
 22 29  1  0  0  0  0
 18 30  1  0  0  0  0
 14 31  1  0  0  0  0
  8 32  1  0  0  0  0
  7 33  2  0  0  0  0
M  END
>  <Name>
Vitamin K1

>  <CAS>
84-80-0

>  <Formula>
C31H46O2

>  <MolWt>
450.71 

>  <Bioactivity>
A family of phylloquinones that contains a ring of 2-methyl-1,4-naphthoquinone and an isoprenoid side chain. Members of this group of vitamin K 1 have only one double bond on the proximal isoprene unit. Rich sources of vitamin K 1 include green plants, algae, and photosynthetic bacteria. Vitamin K1 has antihemorrhagic and prothrombogenic activity.


>  <Pathways>
Others

>  <Target>
Others

>  <Receptor>
Osteocalcin;GGCX

>  <Reference>
1. Morris DP, et al. J Biol Chem. 1993 Apr 25;268(12):8735-42. 

$$$$
59-92-7
  Mrv1561503291623562D          

 14 14  0  0  0  0            999 V2000
    1.4289    0.8250    0.0000 C   0  0  0  0  0  0  0  0  0  0  0  0
    1.4289    0.0000    0.0000 C   0  0  0  0  0  0  0  0  0  0  0  0
    0.7145   -0.4125    0.0000 C   0  0  0  0  0  0  0  0  0  0  0  0
   -0.0000    0.0000    0.0000 C   0  0  0  0  0  0  0  0  0  0  0  0
   -0.0000    0.8250    0.0000 C   0  0  0  0  0  0  0  0  0  0  0  0
    0.7145    1.2375    0.0000 C   0  0  0  0  0  0  0  0  0  0  0  0
    0.7145    2.0625    0.0000 C   0  0  0  0  0  0  0  0  0  0  0  0
    0.0000    2.4750    0.0000 C   0  0  0  0  0  0  0  0  0  0  0  0
    0.0000    3.3000    0.0000 C   0  0  0  0  0  0  0  0  0  0  0  0
   -0.7145    3.7125    0.0000 O   0  0  0  0  0  0  0  0  0  0  0  0
    0.7145    3.7125    0.0000 O   0  0  0  0  0  0  0  0  0  0  0  0
   -0.7145    2.0625    0.0000 N   0  0  0  0  0  0  0  0  0  0  0  0
    0.7145   -1.2375    0.0000 O   0  0  0  0  0  0  0  0  0  0  0  0
    2.1434   -0.4125    0.0000 O   0  0  0  0  0  0  0  0  0  0  0  0
  1  2  2  0  0  0  0
  2  3  1  0  0  0  0
  3  4  2  0  0  0  0
  4  5  1  0  0  0  0
  5  6  2  0  0  0  0
  1  6  1  0  0  0  0
  6  7  1  0  0  0  0
  7  8  1  0  0  0  0
  8  9  1  0  0  0  0
  9 10  1  0  0  0  0
  9 11  2  0  0  0  0
  8 12  1  0  0  0  0
  3 13  1  0  0  0  0
  2 14  1  0  0  0  0
M  END
>  <Name>
Levodopa

>  <CAS>
59-92-7

>  <Formula>
C9H11NO4

>  <MolWt>
197.19 

>  <Bioactivity>
The naturally occurring form of DIHYDROXYPHENYLALANINE and the immediate precursor of DOPAMINE. Unlike dopamine itself, it can be taken orally and crosses the blood-brain barrier. It is rapidly taken up by dopaminergic neurons and converted to DOPAMINE. It is used for the treatment of PARKINSONIAN DISORDERS and is usually given with agents that inhibit its conversion to dopamine outside of the central nervous system. 

>  <Pathways>
Neuroscience

>  <Target>
Dopamine Receptor agonist

>  <Receptor>
Dopamine receptor

>  <Reference>
1. Onofrj M, et al. Expert Opin Investig Drugs. 2008 Jul; 17(7):1115-25. 

$$$$
T0449
  Mrv1561503291623562D          

 13 14  0  0  0  0            999 V2000
   -0.0000    0.0000    0.0000 C   0  0  0  0  0  0  0  0  0  0  0  0
   -0.7145   -0.4125    0.0000 C   0  0  0  0  0  0  0  0  0  0  0  0
   -0.7145   -1.2375    0.0000 C   0  0  0  0  0  0  0  0  0  0  0  0
   -0.0000   -1.6500    0.0000 C   0  0  0  0  0  0  0  0  0  0  0  0
    0.7145   -1.2375    0.0000 C   0  0  0  0  0  0  0  0  0  0  0  0
    0.7145   -0.4125    0.0000 C   0  0  0  0  0  0  0  0  0  0  0  0
    1.4289    0.0000    0.0000 C   0  0  0  0  0  0  0  0  0  0  0  0
    2.1434   -0.4125    0.0000 C   0  0  0  0  0  0  0  0  0  0  0  0
    2.1434   -1.2375    0.0000 C   0  0  0  0  0  0  0  0  0  0  0  0
    1.4289   -1.6500    0.0000 C   0  0  0  0  0  0  0  0  0  0  0  0
    1.4289   -2.4750    0.0000 O   0  0  0  0  0  0  0  0  0  0  0  0
    2.8579    0.0000    0.0000 C   0  0  0  0  0  0  0  0  0  0  0  0
    1.4289    0.8250    0.0000 O   0  0  0  0  0  0  0  0  0  0  0  0
  1  2  2  0  0  0  0
  2  3  1  0  0  0  0
  3  4  2  0  0  0  0
  4  5  1  0  0  0  0
  5  6  2  0  0  0  0
  1  6  1  0  0  0  0
  6  7  1  0  0  0  0
  7  8  1  0  0  0  0
  8  9  2  0  0  0  0
  9 10  1  0  0  0  0
  5 10  1  0  0  0  0
 10 11  2  0  0  0  0
  8 12  1  0  0  0  0
  7 13  2  0  0  0  0
M  END
>  <Name>
Menadione

>  <CAS>
58-27-5

>  <Formula>
C11H8O2

>  <MolWt>
172.18 

>  <Bioactivity>
A synthetic naphthoquinone without the isoprenoid side chain and biological activity, but can be converted to active vitamin K2, menaquinone, after alkylation in vivo. 

>  <Pathways>
Angiogensis; Vitamin

>  <Target>
Prothrombin activator;VK

>  <Receptor>
Prothrombin;VK

>  <Reference>
1. Wang Z, et al. Hepatology. 1995 Sep; 22(3):876-82. 

$$$$
103597-45-1
  Mrv1561503291623562D          

 49 54  0  0  0  0            999 V2000
   -4.2962   -2.1269    0.0000 C   0  0  0  0  0  0  0  0  0  0  0  0
   -3.8837   -1.4124    0.0000 C   0  0  0  0  0  0  0  0  0  0  0  0
   -4.2962   -0.6979    0.0000 N   0  0  0  0  0  0  0  0  0  0  0  0
   -5.1167   -0.6117    0.0000 N   0  0  0  0  0  0  0  0  0  0  0  0
   -5.2882    0.1953    0.0000 C   0  0  0  0  0  0  0  0  0  0  0  0
   -6.0027    0.6078    0.0000 C   0  0  0  0  0  0  0  0  0  0  0  0
   -6.0027    1.4328    0.0000 C   0  0  0  0  0  0  0  0  0  0  0  0
   -5.2882    1.8453    0.0000 C   0  0  0  0  0  0  0  0  0  0  0  0
   -4.5737    1.4328    0.0000 C   0  0  0  0  0  0  0  0  0  0  0  0
   -4.5737    0.6078    0.0000 C   0  0  0  0  0  0  0  0  0  0  0  0
   -3.9606    0.0557    0.0000 N   0  0  0  0  0  0  0  0  0  0  0  0
   -3.0587   -1.4124    0.0000 C   0  0  0  0  0  0  0  0  0  0  0  0
   -2.6462   -2.1269    0.0000 C   0  0  0  0  0  0  0  0  0  0  0  0
   -1.8212   -2.1269    0.0000 C   0  0  0  0  0  0  0  0  0  0  0  0
   -1.4087   -1.4124    0.0000 C   0  0  0  0  0  0  0  0  0  0  0  0
   -1.8212   -0.6979    0.0000 C   0  0  0  0  0  0  0  0  0  0  0  0
   -1.4087    0.0165    0.0000 C   0  0  0  0  0  0  0  0  0  0  0  0
   -0.5837    0.0165    0.0000 C   0  0  0  0  0  0  0  0  0  0  0  0
   -0.1712   -0.6979    0.0000 C   0  0  0  0  0  0  0  0  0  0  0  0
   -0.5837   -1.4124    0.0000 C   0  0  0  0  0  0  0  0  0  0  0  0
   -0.1712   -2.1269    0.0000 O   0  0  0  0  0  0  0  0  0  0  0  0
    0.6538   -0.6979    0.0000 N   0  0  0  0  0  0  0  0  0  0  0  0
    1.1387   -0.0305    0.0000 N   0  0  0  0  0  0  0  0  0  0  0  0
    1.9233   -0.2854    0.0000 C   0  0  0  0  0  0  0  0  0  0  0  0
    2.6378    0.1271    0.0000 C   0  0  0  0  0  0  0  0  0  0  0  0
    3.3523   -0.2854    0.0000 C   0  0  0  0  0  0  0  0  0  0  0  0
    3.3523   -1.1104    0.0000 C   0  0  0  0  0  0  0  0  0  0  0  0
    2.6378   -1.5229    0.0000 C   0  0  0  0  0  0  0  0  0  0  0  0
    1.9233   -1.1104    0.0000 C   0  0  0  0  0  0  0  0  0  0  0  0
    1.1387   -1.3654    0.0000 N   0  0  0  0  0  0  0  0  0  0  0  0
   -1.8212    0.7310    0.0000 C   0  0  0  0  0  0  0  0  0  0  0  0
   -2.2337    1.4455    0.0000 C   0  0  0  0  0  0  0  0  0  0  0  0
   -1.8212    2.1599    0.0000 C   0  0  0  0  0  0  0  0  0  0  0  0
   -1.1067    1.7474    0.0000 C   0  0  0  0  0  0  0  0  0  0  0  0
   -2.5357    2.5724    0.0000 C   0  0  0  0  0  0  0  0  0  0  0  0
   -1.4087    2.8744    0.0000 C   0  0  0  0  0  0  0  0  0  0  0  0
   -1.1067    1.1435    0.0000 C   0  0  0  0  0  0  0  0  0  0  0  0
   -2.5357    0.3185    0.0000 C   0  0  0  0  0  0  0  0  0  0  0  0
   -3.0587   -2.8414    0.0000 C   0  0  0  0  0  0  0  0  0  0  0  0
   -3.8837   -2.8414    0.0000 C   0  0  0  0  0  0  0  0  0  0  0  0
   -4.2962   -3.5558    0.0000 C   0  0  0  0  0  0  0  0  0  0  0  0
   -4.7087   -4.2703    0.0000 C   0  0  0  0  0  0  0  0  0  0  0  0
   -5.5337   -4.2703    0.0000 C   0  0  0  0  0  0  0  0  0  0  0  0
   -5.5337   -3.4453    0.0000 C   0  0  0  0  0  0  0  0  0  0  0  0
   -5.5337   -5.0953    0.0000 C   0  0  0  0  0  0  0  0  0  0  0  0
   -6.3587   -4.2703    0.0000 C   0  0  0  0  0  0  0  0  0  0  0  0
   -5.0107   -3.1433    0.0000 C   0  0  0  0  0  0  0  0  0  0  0  0
   -3.5817   -3.9683    0.0000 C   0  0  0  0  0  0  0  0  0  0  0  0
   -2.6462   -0.6979    0.0000 O   0  0  0  0  0  0  0  0  0  0  0  0
  1  2  2  0  0  0  0
  2  3  1  0  0  0  0
  3  4  1  0  0  0  0
  4  5  2  0  0  0  0
  5  6  1  0  0  0  0
  6  7  2  0  0  0  0
  7  8  1  0  0  0  0
  8  9  2  0  0  0  0
  9 10  1  0  0  0  0
  5 10  1  0  0  0  0
 10 11  2  0  0  0  0
  3 11  1  0  0  0  0
  2 12  1  0  0  0  0
 12 13  2  0  0  0  0
 13 14  1  0  0  0  0
 14 15  1  0  0  0  0
 15 16  2  0  0  0  0
 16 17  1  0  0  0  0
 17 18  2  0  0  0  0
 18 19  1  0  0  0  0
 19 20  2  0  0  0  0
 15 20  1  0  0  0  0
 20 21  1  0  0  0  0
 19 22  1  0  0  0  0
 22 23  1  0  0  0  0
 23 24  2  0  0  0  0
 24 25  1  0  0  0  0
 25 26  2  0  0  0  0
 26 27  1  0  0  0  0
 27 28  2  0  0  0  0
 28 29  1  0  0  0  0
 24 29  1  0  0  0  0
 29 30  2  0  0  0  0
 22 30  1  0  0  0  0
 17 31  1  0  0  0  0
 31 32  1  0  0  0  0
 32 33  1  0  0  0  0
 33 34  1  0  0  0  0
 33 35  1  0  0  0  0
 33 36  1  0  0  0  0
 31 37  1  0  0  0  0
 31 38  1  0  0  0  0
 13 39  1  0  0  0  0
 39 40  2  0  0  0  0
  1 40  1  0  0  0  0
 40 41  1  0  0  0  0
 41 42  1  0  0  0  0
 42 43  1  0  0  0  0
 43 44  1  0  0  0  0
 43 45  1  0  0  0  0
 43 46  1  0  0  0  0
 41 47  1  0  0  0  0
 41 48  1  0  0  0  0
 12 49  1  0  0  0  0
M  END
>  <Name>
Ultraviolet Absorbent UV-360

>  <CAS>
103597-45-1

>  <Formula>
C41H50N6O2

>  <MolWt>
658.37 

>  <Bioactivity>
Bisoctrizole is a benzotriazole-based organic compound that is added to sunscreens to absorb UV rays.

>  <Pathways>
Others

>  <Target>
Others

>  <Receptor>
Others

>  <Reference>
1. Herzog B, et al. Int J Cosmet Sci. 2002 Jun;24(3):170-85.

$$$$
58-63-9
  Mrv1561503291623562D          

 19 21  0  0  0  0            999 V2000
   -0.6284   -0.6979    0.0000 C   0  0  0  0  0  0  0  0  0  0  0  0
   -0.1435   -1.3654    0.0000 N   0  0  0  0  0  0  0  0  0  0  0  0
    0.6411   -1.1104    0.0000 C   0  0  0  0  0  0  0  0  0  0  0  0
    0.6411   -0.2854    0.0000 C   0  0  0  0  0  0  0  0  0  0  0  0
    1.3556    0.1271    0.0000 N   0  0  0  0  0  0  0  0  0  0  0  0
    2.0701   -0.2854    0.0000 C   0  0  0  0  0  0  0  0  0  0  0  0
    2.0701   -1.1104    0.0000 N   0  0  0  0  0  0  0  0  0  0  0  0
    1.3556   -1.5229    0.0000 C   0  0  0  0  0  0  0  0  0  0  0  0
    1.3556   -2.3479    0.0000 O   0  0  0  0  0  0  0  0  0  0  0  0
   -0.1435   -0.0305    0.0000 N   0  0  0  0  0  0  0  0  0  0  0  0
   -0.3984    0.7541    0.0000 C   0  0  0  0  0  0  0  0  0  0  0  0
   -1.1831    1.0091    0.0000 C   0  0  0  0  0  0  0  0  0  0  0  0
   -1.1831    1.8341    0.0000 C   0  0  0  0  0  0  0  0  0  0  0  0
   -0.3984    2.0890    0.0000 C   0  0  0  0  0  0  0  0  0  0  0  0
    0.0865    1.4216    0.0000 O   0  0  0  0  0  0  0  0  0  0  0  0
   -0.1435    2.8736    0.0000 C   0  0  0  0  0  0  0  0  0  0  0  0
   -0.6955    3.4867    0.0000 O   0  0  0  0  0  0  0  0  0  0  0  0
   -1.8505    2.3190    0.0000 O   0  0  0  0  0  0  0  0  0  0  0  0
   -1.8505    0.5241    0.0000 O   0  0  0  0  0  0  0  0  0  0  0  0
  1  2  2  0  0  0  0
  2  3  1  0  0  0  0
  3  4  2  0  0  0  0
  4  5  1  0  0  0  0
  5  6  1  0  0  0  0
  6  7  2  0  0  0  0
  7  8  1  0  0  0  0
  3  8  1  0  0  0  0
  8  9  2  0  0  0  0
  4 10  1  0  0  0  0
  1 10  1  0  0  0  0
 10 11  1  0  0  0  0
 11 12  1  0  0  0  0
 12 13  1  0  0  0  0
 13 14  1  0  0  0  0
 14 15  1  0  0  0  0
 11 15  1  0  0  0  0
 14 16  1  0  0  0  0
 16 17  1  0  0  0  0
 13 18  1  0  0  0  0
 12 19  1  0  0  0  0
M  END
>  <Name>
Inosine

>  <CAS>
58-63-9

>  <Formula>
C10H12N4O5

>  <MolWt>
268.23 

>  <Bioactivity>
A purine nucleoside that has hypoxanthine linked by the N9 nitrogen to the C1 carbon of ribose. It is an intermediate in the degradation of purines and purine nucleosides to uric acid and in pathways of purine salvage. It also occurs in the anticodon of certain transfer RNA molecules.

>  <Pathways>
Metabolism

>  <Target>
Xanthine Oxidase inhibitor

>  <Receptor>
Xanthine oxidase

>  <Reference>
1. Krebs HA, et al. Biochim Biophys Acta, 1953, 12(1-2), 172-180.

$$$$
138-52-3
  Mrv1561503291623562D          

 20 21  0  0  1  0            999 V2000
    1.4289    2.4750    0.0000 C   0  0  2  0  0  0  0  0  0  0  0  0
    0.7145    2.0625    0.0000 O   0  0  0  0  0  0  0  0  0  0  0  0
    0.7145    1.2375    0.0000 C   0  0  0  0  0  0  0  0  0  0  0  0
    1.4289    0.8250    0.0000 C   0  0  0  0  0  0  0  0  0  0  0  0
    1.4289    0.0000    0.0000 C   0  0  0  0  0  0  0  0  0  0  0  0
    0.7145   -0.4125    0.0000 C   0  0  0  0  0  0  0  0  0  0  0  0
    0.0000   -0.0000    0.0000 C   0  0  0  0  0  0  0  0  0  0  0  0
    0.0000    0.8250    0.0000 C   0  0  0  0  0  0  0  0  0  0  0  0
    2.1434    1.2375    0.0000 C   0  0  0  0  0  0  0  0  0  0  0  0
    2.8579    0.8250    0.0000 O   0  0  0  0  0  0  0  0  0  0  0  0
    2.1434    2.0625    0.0000 O   0  0  0  0  0  0  0  0  0  0  0  0
    2.8579    2.4750    0.0000 C   0  0  1  0  0  0  0  0  0  0  0  0
    2.8579    3.3000    0.0000 C   0  0  1  0  0  0  0  0  0  0  0  0
    3.5724    3.7125    0.0000 O   0  0  0  0  0  0  0  0  0  0  0  0
    2.1434    3.7125    0.0000 C   0  0  1  0  0  0  0  0  0  0  0  0
    1.4289    3.3000    0.0000 C   0  0  1  0  0  0  0  0  0  0  0  0
    0.7145    3.7125    0.0000 O   0  0  0  0  0  0  0  0  0  0  0  0
    2.1434    4.5375    0.0000 O   0  0  0  0  0  0  0  0  0  0  0  0
    3.5724    2.0625    0.0000 C   0  0  0  0  0  0  0  0  0  0  0  0
    4.2868    2.4750    0.0000 O   0  0  0  0  0  0  0  0  0  0  0  0
  1  2  1  1  0  0  0
  2  3  1  0  0  0  0
  3  4  2  0  0  0  0
  4  5  1  0  0  0  0
  5  6  2  0  0  0  0
  6  7  1  0  0  0  0
  7  8  2  0  0  0  0
  3  8  1  0  0  0  0
  4  9  1  0  0  0  0
  9 10  1  0  0  0  0
  1 11  1  0  0  0  0
 11 12  1  0  0  0  0
 12 13  1  0  0  0  0
 13 14  1  6  0  0  0
 13 15  1  0  0  0  0
 15 16  1  0  0  0  0
  1 16  1  0  0  0  0
 16 17  1  6  0  0  0
 15 18  1  1  0  0  0
 12 19  1  1  0  0  0
 19 20  1  0  0  0  0
M  END
>  <Name>
SALICOSIDE

>  <CAS>
138-52-3

>  <Formula>
C13H18O7

>  <MolWt>
286.28 

>  <Bioactivity>
Salicin is a phenol ?-glycosid produced from willow bark that shows anti-inflammatory effects.

>  <Pathways>
Neuroscience

>  <Target>
COX inhibitor

>  <Receptor>
Prostaglandin G/H synthase

>  <Reference>
1. Wei W, et al. J Asian Nat Prod Res. 2015 Apr 23:1-6. 

$$$$
16423-68-0
  Mrv1561503291623562D          

 31 32  0  0  0  0            999 V2000
   -0.7145   -2.8875    0.0000 C   0  0  0  0  0  0  0  0  0  0  0  0
    0.0000   -2.4750    0.0000 C   0  0  0  0  0  0  0  0  0  0  0  0
    0.7145   -2.8875    0.0000 C   0  0  0  0  0  0  0  0  0  0  0  0
    1.4289   -2.4750    0.0000 C   0  0  0  0  0  0  0  0  0  0  0  0
    1.4289   -1.6500    0.0000 C   0  0  0  0  0  0  0  0  0  0  0  0
    2.1434   -1.2375    0.0000 C   0  0  0  0  0  0  0  0  0  0  0  0
    2.1434   -0.4125    0.0000 I   0  0  0  0  0  0  0  0  0  0  0  0
    2.8579   -1.6500    0.0000 C   0  0  0  0  0  0  0  0  0  0  0  0
    3.5724   -1.2375    0.0000 O   0  0  0  0  0  0  0  0  0  0  0  0
    2.8579   -2.4750    0.0000 C   0  0  0  0  0  0  0  0  0  0  0  0
    2.1434   -2.8875    0.0000 C   0  0  0  0  0  0  0  0  0  0  0  0
    3.5724   -2.8875    0.0000 I   0  0  0  0  0  0  0  0  0  0  0  0
    0.7145   -1.2375    0.0000 O   0  0  0  0  0  0  0  0  0  0  0  0
   -0.0000   -1.6500    0.0000 C   0  0  0  0  0  0  0  0  0  0  0  0
   -0.7145   -1.2375    0.0000 C   0  0  0  0  0  0  0  0  0  0  0  0
   -0.7145   -0.4125    0.0000 I   0  0  0  0  0  0  0  0  0  0  0  0
   -1.4289   -1.6500    0.0000 C   0  0  0  0  0  0  0  0  0  0  0  0
   -1.4289   -2.4750    0.0000 C   0  0  0  0  0  0  0  0  0  0  0  0
   -2.1434   -2.8875    0.0000 I   0  0  0  0  0  0  0  0  0  0  0  0
   -2.1434   -1.2375    0.0000 O   0  5  0  0  0  0  0  0  0  0  0  0
    0.7145   -3.7125    0.0000 C   0  0  0  0  0  0  0  0  0  0  0  0
    1.4289   -4.1250    0.0000 C   0  0  0  0  0  0  0  0  0  0  0  0
    2.1434   -3.7125    0.0000 C   0  0  0  0  0  0  0  0  0  0  0  0
    2.8579   -4.1250    0.0000 O   0  5  0  0  0  0  0  0  0  0  0  0
    2.6283   -3.0451    0.0000 O   0  0  0  0  0  0  0  0  0  0  0  0
    1.4289   -4.9500    0.0000 C   0  0  0  0  0  0  0  0  0  0  0  0
    0.7145   -5.3625    0.0000 C   0  0  0  0  0  0  0  0  0  0  0  0
   -0.0000   -4.9500    0.0000 C   0  0  0  0  0  0  0  0  0  0  0  0
   -0.0000   -4.1250    0.0000 C   0  0  0  0  0  0  0  0  0  0  0  0
   -2.8579   -0.8250    0.0000 Na  0  3  0  0  0  0  0  0  0  0  0  0
    3.5724   -4.5375    0.0000 Na  0  3  0  0  0  0  0  0  0  0  0  0
  1  2  2  0  0  0  0
  2  3  1  0  0  0  0
  3  4  2  0  0  0  0
  4  5  1  0  0  0  0
  5  6  2  0  0  0  0
  6  7  1  0  0  0  0
  6  8  1  0  0  0  0
  8  9  2  0  0  0  0
  8 10  1  0  0  0  0
 10 11  2  0  0  0  0
  4 11  1  0  0  0  0
 10 12  1  0  0  0  0
  5 13  1  0  0  0  0
 13 14  1  0  0  0  0
  2 14  1  0  0  0  0
 14 15  2  0  0  0  0
 15 16  1  0  0  0  0
 15 17  1  0  0  0  0
 17 18  2  0  0  0  0
  1 18  1  0  0  0  0
 18 19  1  0  0  0  0
 17 20  1  0  0  0  0
  3 21  1  0  0  0  0
 21 22  2  0  0  0  0
 22 23  1  0  0  0  0
 23 24  1  0  0  0  0
 23 25  2  0  0  0  0
 22 26  1  0  0  0  0
 26 27  2  0  0  0  0
 27 28  1  0  0  0  0
 28 29  2  0  0  0  0
 21 29  1  0  0  0  0
M  CHG  4  20  -1  24  -1  30   1  31   1
M  END
>  <Name>
Erythrosine

>  <CAS>
16423-68-0

>  <Formula>
C20H6I4Na2O5

>  <MolWt>
879.86 

>  <Bioactivity>
A tetraiodofluorescein used as a red coloring in some foods (cherries, fish), as a disclosure of DENTAL PLAQUE, and as a stain of some cell types. It has structural similarity to THYROXINE.  

>  <Pathways>
Others

>  <Target>
Others

>  <Receptor>
Others

>  <Reference>
1. Horikoshi S, et al. Clin Chim Acta. 2012 Jul 11;413(13-14):1087-91. 

$$$$
T1151
  Mrv1561503291623562D          

 58 60  0  0  1  0            999 V2000
   -1.0526   -0.5031    0.0000 C   0  0  1  0  0  0  0  0  0  0  0  0
   -0.7145    0.4125    0.0000 O   0  0  0  0  0  0  0  0  0  0  0  0
   -0.0000    0.8250    0.0000 C   0  0  0  0  0  0  0  0  0  0  0  0
    0.7145    0.4125    0.0000 O   0  0  0  0  0  0  0  0  0  0  0  0
    1.4289    0.8250    0.0000 C   0  0  0  0  0  0  0  0  0  0  0  0
    1.4289    1.6500    0.0000 C   0  0  0  0  0  0  0  0  0  0  0  0
    0.7145    2.0625    0.0000 C   0  0  0  0  0  0  0  0  0  0  0  0
    0.7145    2.8875    0.0000 N   0  0  0  0  0  0  0  0  0  0  0  0
   -0.0000    3.3000    0.0000 C   0  0  0  0  0  0  0  0  0  0  0  0
    1.4289    3.3000    0.0000 C   0  0  0  0  0  0  0  0  0  0  0  0
   -0.0000    1.6500    0.0000 C   0  0  0  0  0  0  0  0  0  0  0  0
   -0.7145    2.0625    0.0000 O   0  0  0  0  0  0  0  0  0  0  0  0
    2.1434    0.4125    0.0000 C   0  0  0  0  0  0  0  0  0  0  0  0
   -0.3381   -0.0906    0.0000 C   0  0  2  0  0  0  0  0  0  0  0  0
    0.5303    0.6320    0.0000 O   0  0  0  0  0  0  0  0  0  0  0  0
    0.3764   -0.5031    0.0000 C   0  0  0  0  0  0  0  0  0  0  0  0
    0.7145   -1.2375    0.0000 C   0  0  2  0  0  0  0  0  0  0  0  0
   -0.0000   -1.6500    0.0000 C   0  0  0  0  0  0  0  0  0  0  0  0
   -0.7145   -1.2375    0.0000 N   0  0  0  0  0  0  0  0  0  0  0  0
   -0.7145   -0.4125    0.0000 O   0  0  0  0  0  0  0  0  0  0  0  0
   -0.0000    0.0000    0.0000 C   0  0  0  0  0  0  0  0  0  0  0  0
    0.7145   -0.4125    0.0000 O   0  0  0  0  0  0  0  0  0  0  0  0
    1.4289    0.0000    0.0000 C   0  0  0  0  0  0  0  0  0  0  0  0
    2.1434   -0.4125    0.0000 C   0  0  0  0  0  0  0  0  0  0  0  0
    2.8579    0.0000    0.0000 O   0  0  0  0  0  0  0  0  0  0  0  0
    3.5724   -0.4125    0.0000 C   0  0  0  0  0  0  0  0  0  0  0  0
   -0.0000   -2.4750    0.0000 C   0  0  1  0  0  0  0  0  0  0  0  0
   -0.7145   -2.8875    0.0000 C   0  0  1  0  0  0  0  0  0  0  0  0
   -0.7145   -3.7125    0.0000 O   0  0  0  0  0  0  0  0  0  0  0  0
   -1.4289   -2.4750    0.0000 C   0  0  2  0  0  0  0  0  0  0  0  0
   -1.7111   -3.2502    0.0000 O   0  0  0  0  0  0  0  0  0  0  0  0
   -2.1434   -2.8875    0.0000 C   0  0  2  0  0  0  0  0  0  0  0  0
   -2.8579   -2.4750    0.0000 O   0  0  0  0  0  0  0  0  0  0  0  0
   -2.8579   -1.6500    0.0000 C   0  0  0  0  0  0  0  0  0  0  0  0
   -3.5724   -1.2375    0.0000 O   0  0  0  0  0  0  0  0  0  0  0  0
   -2.1434   -1.2375    0.0000 C   0  0  1  0  0  0  0  0  0  0  0  0
   -2.1434   -0.4125    0.0000 C   0  0  1  0  0  0  0  0  0  0  0  0
   -2.8579   -0.0000    0.0000 O   0  0  0  0  0  0  0  0  0  0  0  0
   -2.8579    0.8250    0.0000 C   0  0  0  0  0  0  0  0  0  0  0  0
   -3.5724    1.2375    0.0000 O   0  0  0  0  0  0  0  0  0  0  0  0
   -3.5724    2.0625    0.0000 C   0  0  0  0  0  0  0  0  0  0  0  0
   -2.8579    2.4750    0.0000 C   0  0  0  0  0  0  0  0  0  0  0  0
   -2.8579    3.3000    0.0000 O   0  0  0  0  0  0  0  0  0  0  0  0
   -2.1434    2.0625    0.0000 C   0  0  0  0  0  0  0  0  0  0  0  0
   -1.8612    2.8377    0.0000 O   0  0  0  0  0  0  0  0  0  0  0  0
   -1.0488    2.9810    0.0000 C   0  0  0  0  0  0  0  0  0  0  0  0
   -2.1434    1.2375    0.0000 C   0  0  0  0  0  0  0  0  0  0  0  0
   -1.3309    1.9192    0.0000 C   0  0  0  0  0  0  0  0  0  0  0  0
   -4.2868    2.4750    0.0000 C   0  0  0  0  0  0  0  0  0  0  0  0
   -1.4289   -0.0000    0.0000 C   0  0  2  0  0  0  0  0  0  0  0  0
   -1.4289    0.8250    0.0000 C   0  0  0  0  0  0  0  0  0  0  0  0
   -1.4289   -1.6500    0.0000 C   0  0  0  0  0  0  0  0  0  0  0  0
   -2.1434   -3.7125    0.0000 C   0  0  0  0  0  0  0  0  0  0  0  0
   -2.8579   -4.1250    0.0000 C   0  0  0  0  0  0  0  0  0  0  0  0
   -1.1468   -3.2502    0.0000 C   0  0  0  0  0  0  0  0  0  0  0  0
    0.7145   -2.8875    0.0000 C   0  0  0  0  0  0  0  0  0  0  0  0
    1.4289   -1.6500    0.0000 C   0  0  0  0  0  0  0  0  0  0  0  0
   -0.5303    0.6320    0.0000 C   0  0  0  0  0  0  0  0  0  0  0  0
  1  2  1  6  0  0  0
  2  3  1  0  0  0  0
  3  4  1  0  0  0  0
  4  5  1  0  0  0  0
  5  6  1  0  0  0  0
  6  7  1  0  0  0  0
  7  8  1  0  0  0  0
  8  9  1  0  0  0  0
  8 10  1  0  0  0  0
  7 11  1  0  0  0  0
  3 11  1  0  0  0  0
 11 12  1  0  0  0  0
  5 13  1  0  0  0  0
  1 14  1  0  0  0  0
 14 15  1  6  0  0  0
 14 16  1  0  0  0  0
 16 17  1  0  0  0  0
 17 18  1  0  0  0  0
 18 19  2  0  0  0  0
 19 20  1  0  0  0  0
 20 21  1  0  0  0  0
 21 22  1  0  0  0  0
 22 23  1  0  0  0  0
 23 24  1  0  0  0  0
 24 25  1  0  0  0  0
 25 26  1  0  0  0  0
 18 27  1  0  0  0  0
 27 28  1  0  0  0  0
 28 29  1  1  0  0  0
 28 30  1  0  0  0  0
 30 31  1  6  0  0  0
 30 32  1  0  0  0  0
 32 33  1  0  0  0  0
 33 34  1  0  0  0  0
 34 35  2  0  0  0  0
 34 36  1  0  0  0  0
 36 37  1  0  0  0  0
 37 38  1  1  0  0  0
 38 39  1  0  0  0  0
 39 40  1  0  0  0  0
 40 41  1  0  0  0  0
 41 42  1  0  0  0  0
 42 43  1  0  0  0  0
 42 44  1  0  0  0  0
 44 45  1  0  0  0  0
 45 46  1  0  0  0  0
 44 47  1  0  0  0  0
 39 47  1  0  0  0  0
 44 48  1  0  0  0  0
 41 49  1  0  0  0  0
 37 50  1  0  0  0  0
  1 50  1  0  0  0  0
 50 51  1  6  0  0  0
 36 52  1  1  0  0  0
 32 53  1  1  0  0  0
 53 54  1  0  0  0  0
 30 55  1  1  0  0  0
 27 56  1  6  0  0  0
 17 57  1  1  0  0  0
 14 58  1  1  0  0  0
M  END
>  <Name>
Roxithromycin

>  <CAS>
80214-83-1

>  <Formula>
C41H76N2O15

>  <MolWt>
837.05 

>  <Bioactivity>
Semisynthetic derivative of erythromycin. It is concentrated by human phagocytes and is bioactive intracellularly. While the drug is active against a wide spectrum of pathogens, it is particularly effective in the treatment of respiratory and genital tract infections.  

>  <Pathways>
Microbiology & Virology

>  <Target>
Antibiotic

>  <Receptor>
50S ribosomal protein

>  <Reference>
1. Bertho G, et al. Bioorg Med Chem. 1998 Feb;6(2):209-21. 

$$$$
66108-95-0
  Mrv1561503291623562D          

 34 34  0  0  0  0            999 V2000
    1.2375   -0.9355    0.0000 C   0  0  0  0  0  0  0  0  0  0  0  0
    0.4125   -0.9355    0.0000 N   0  0  0  0  0  0  0  0  0  0  0  0
   -0.0000   -0.2211    0.0000 C   0  0  0  0  0  0  0  0  0  0  0  0
   -0.8250   -0.2211    0.0000 C   0  0  0  0  0  0  0  0  0  0  0  0
   -1.2375    0.4934    0.0000 C   0  0  0  0  0  0  0  0  0  0  0  0
   -0.8250    1.2079    0.0000 C   0  0  0  0  0  0  0  0  0  0  0  0
   -0.0000    1.2079    0.0000 C   0  0  0  0  0  0  0  0  0  0  0  0
    0.4125    0.4934    0.0000 C   0  0  0  0  0  0  0  0  0  0  0  0
    1.2375    0.4934    0.0000 I   0  0  0  0  0  0  0  0  0  0  0  0
    0.4125    1.9224    0.0000 C   0  0  0  0  0  0  0  0  0  0  0  0
    1.2375    1.9224    0.0000 N   0  0  0  0  0  0  0  0  0  0  0  0
    1.6500    2.6368    0.0000 C   0  0  0  0  0  0  0  0  0  0  0  0
    2.4750    2.6368    0.0000 C   0  0  0  0  0  0  0  0  0  0  0  0
    2.8875    3.3513    0.0000 C   0  0  0  0  0  0  0  0  0  0  0  0
    3.7125    3.3513    0.0000 O   0  0  0  0  0  0  0  0  0  0  0  0
    2.8875    1.9224    0.0000 O   0  0  0  0  0  0  0  0  0  0  0  0
   -0.0000    2.6368    0.0000 O   0  0  0  0  0  0  0  0  0  0  0  0
   -1.2375    1.9224    0.0000 I   0  0  0  0  0  0  0  0  0  0  0  0
   -2.0625    0.4934    0.0000 C   0  0  0  0  0  0  0  0  0  0  0  0
   -2.4750   -0.2211    0.0000 N   0  0  0  0  0  0  0  0  0  0  0  0
   -3.3000   -0.2211    0.0000 C   0  0  0  0  0  0  0  0  0  0  0  0
   -3.7125   -0.9355    0.0000 C   0  0  0  0  0  0  0  0  0  0  0  0
   -4.5375   -0.9355    0.0000 C   0  0  0  0  0  0  0  0  0  0  0  0
   -4.9500   -1.6500    0.0000 O   0  0  0  0  0  0  0  0  0  0  0  0
   -3.3000   -1.6500    0.0000 O   0  0  0  0  0  0  0  0  0  0  0  0
   -2.4750    1.2079    0.0000 O   0  0  0  0  0  0  0  0  0  0  0  0
   -1.2375   -0.9355    0.0000 I   0  0  0  0  0  0  0  0  0  0  0  0
   -0.0000   -1.6500    0.0000 C   0  0  0  0  0  0  0  0  0  0  0  0
    0.4125   -2.3645    0.0000 C   0  0  0  0  0  0  0  0  0  0  0  0
   -0.8250   -1.6500    0.0000 O   0  0  0  0  0  0  0  0  0  0  0  0
    1.6500   -1.6500    0.0000 C   0  0  0  0  0  0  0  0  0  0  0  0
    2.4750   -1.6500    0.0000 C   0  0  0  0  0  0  0  0  0  0  0  0
    2.8875   -0.9355    0.0000 O   0  0  0  0  0  0  0  0  0  0  0  0
    1.2375   -2.3645    0.0000 O   0  0  0  0  0  0  0  0  0  0  0  0
  1  2  1  0  0  0  0
  2  3  1  0  0  0  0
  3  4  2  0  0  0  0
  4  5  1  0  0  0  0
  5  6  2  0  0  0  0
  6  7  1  0  0  0  0
  7  8  2  0  0  0  0
  3  8  1  0  0  0  0
  8  9  1  0  0  0  0
  7 10  1  0  0  0  0
 10 11  1  0  0  0  0
 11 12  1  0  0  0  0
 12 13  1  0  0  0  0
 13 14  1  0  0  0  0
 14 15  1  0  0  0  0
 13 16  1  0  0  0  0
 10 17  2  0  0  0  0
  6 18  1  0  0  0  0
  5 19  1  0  0  0  0
 19 20  1  0  0  0  0
 20 21  1  0  0  0  0
 21 22  1  0  0  0  0
 22 23  1  0  0  0  0
 23 24  1  0  0  0  0
 22 25  1  0  0  0  0
 19 26  2  0  0  0  0
  4 27  1  0  0  0  0
  2 28  1  0  0  0  0
 28 29  1  0  0  0  0
 28 30  2  0  0  0  0
  1 31  1  0  0  0  0
 31 32  1  0  0  0  0
 32 33  1  0  0  0  0
 31 34  1  0  0  0  0
M  END
>  <Name>
Iohexol

>  <CAS>
66108-95-0

>  <Formula>
C19H26I3N3O9

>  <MolWt>
821.14 

>  <Bioactivity>
An effective non-ionic, water-soluble contrast agent which is used in myelography, arthrography, nephroangiography, arteriography, and other radiographic procedures. Its low systemic toxicity is the combined result of low chemotoxicity and low osmolality.

>  <Pathways>
Others

>  <Target>
Others

>  <Receptor>
Others

>  <Reference>
1. Yin Q, et al. J Am Chem Soc. 2013 Sep 18; 135(37):13620-3. 

$$$$
128-13-2
  Mrv1561503291623562D          

 28 31  0  0  1  0            999 V2000
    0.7475   -2.9779    0.0000 C   0  0  1  0  0  0  0  0  0  0  0  0
    1.5596   -2.8327    0.0000 C   0  0  1  0  0  0  0  0  0  0  0  0
    2.0914   -3.4634    0.0000 C   0  0  1  0  0  0  0  0  0  0  0  0
    2.9035   -3.3182    0.0000 C   0  0  2  0  0  0  0  0  0  0  0  0
    3.1838   -2.5422    0.0000 C   0  0  1  0  0  0  0  0  0  0  0  0
    3.9960   -2.3970    0.0000 C   0  0  0  0  0  0  0  0  0  0  0  0
    4.5278   -3.0277    0.0000 C   0  0  2  0  0  0  0  0  0  0  0  0
    5.3399   -2.8825    0.0000 O   0  0  0  0  0  0  0  0  0  0  0  0
    4.2475   -3.8037    0.0000 C   0  0  0  0  0  0  0  0  0  0  0  0
    3.4354   -3.9489    0.0000 C   0  0  0  0  0  0  0  0  0  0  0  0
    2.6520   -1.9115    0.0000 C   0  0  0  0  0  0  0  0  0  0  0  0
    1.8399   -2.0567    0.0000 C   0  0  2  0  0  0  0  0  0  0  0  0
    1.3081   -1.4260    0.0000 O   0  0  0  0  0  0  0  0  0  0  0  0
    2.6232   -4.0941    0.0000 C   0  0  0  0  0  0  0  0  0  0  0  0
    1.8111   -4.2393    0.0000 C   0  0  0  0  0  0  0  0  0  0  0  0
    0.9990   -4.3845    0.0000 C   0  0  0  0  0  0  0  0  0  0  0  0
    0.4672   -3.7538    0.0000 C   0  0  2  0  0  0  0  0  0  0  0  0
   -0.3574   -3.7270    0.0000 C   0  0  1  0  0  0  0  0  0  0  0  0
   -0.8637   -4.3783    0.0000 C   0  0  1  0  0  0  0  0  0  0  0  0
   -1.6810   -4.2655    0.0000 C   0  0  0  0  0  0  0  0  0  0  0  0
   -2.1873   -4.9168    0.0000 C   0  0  0  0  0  0  0  0  0  0  0  0
   -3.0046   -4.8040    0.0000 C   0  0  0  0  0  0  0  0  0  0  0  0
   -3.5109   -5.4553    0.0000 O   0  0  0  0  0  0  0  0  0  0  0  0
   -3.3155   -4.0398    0.0000 O   0  0  0  0  0  0  0  0  0  0  0  0
   -0.5528   -5.1425    0.0000 C   0  0  0  0  0  0  0  0  0  0  0  0
   -0.5867   -2.9345    0.0000 C   0  0  0  0  0  0  0  0  0  0  0  0
    0.0962   -2.4715    0.0000 C   0  0  0  0  0  0  0  0  0  0  0  0
    0.1073   -4.4962    0.0000 C   0  0  0  0  0  0  0  0  0  0  0  0
  1  2  1  0  0  0  0
  2  3  1  0  0  0  0
  3  4  1  0  0  0  0
  4  5  1  0  0  0  0
  5  6  1  0  0  0  0
  6  7  1  0  0  0  0
  7  8  1  6  0  0  0
  7  9  1  0  0  0  0
  9 10  1  0  0  0  0
  4 10  1  0  0  0  0
  5 11  1  6  0  0  0
 11 12  1  0  0  0  0
  2 12  1  6  0  0  0
 12 13  1  1  0  0  0
  4 14  1  1  0  0  0
  3 15  1  1  0  0  0
 15 16  1  0  0  0  0
 16 17  1  0  0  0  0
  1 17  1  0  0  0  0
 17 18  1  0  0  0  0
 18 19  1  1  0  0  0
 19 20  1  0  0  0  0
 20 21  1  0  0  0  0
 21 22  1  0  0  0  0
 22 23  1  0  0  0  0
 22 24  2  0  0  0  0
 19 25  1  6  0  0  0
 18 26  1  0  0  0  0
 26 27  1  0  0  0  0
  1 27  1  1  0  0  0
 17 28  1  1  0  0  0
M  END
>  <Name>
Ursodeoxycholic acid

>  <CAS>
128-13-2

>  <Formula>
C24H40O4

>  <MolWt>
392.57 

>  <Bioactivity>
An epimer of chenodeoxycholic acid. It is a mammalian bile acid found first in the bear and is apparently either a precursor or a product of chenodeoxycholate. Its administration changes the composition of bile and may dissolve gallstones. It is used as a cholagogue and choleretic. 

>  <Pathways>
Metabolism

>  <Target>
Biliation inhibitor

>  <Receptor>
Bile salt export pump

>  <Reference>
1. Schuetz EG, et al. J Biol Chem. 2001 Oct 19;276(42):39411-8. 

$$$$
68-96-2
  Mrv1561503291623562D          

 24 27  0  0  1  0            999 V2000
    2.8705    0.0722    0.0000 C   0  0  1  0  0  0  0  0  0  0  0  0
    3.6826    0.2174    0.0000 C   0  0  1  0  0  0  0  0  0  0  0  0
    3.9629    0.9934    0.0000 C   0  0  1  0  0  0  0  0  0  0  0  0
    4.7875    0.9666    0.0000 C   0  0  2  0  0  0  0  0  0  0  0  0
    5.5996    1.1118    0.0000 C   0  0  0  0  0  0  0  0  0  0  0  0
    5.8799    1.8877    0.0000 C   0  0  0  0  0  0  0  0  0  0  0  0
    6.1315    0.4811    0.0000 O   0  0  0  0  0  0  0  0  0  0  0  0
    4.7280    1.7894    0.0000 O   0  0  0  0  0  0  0  0  0  0  0  0
    5.0168    0.1741    0.0000 C   0  0  0  0  0  0  0  0  0  0  0  0
    4.3340   -0.2889    0.0000 C   0  0  0  0  0  0  0  0  0  0  0  0
    3.4311    1.6241    0.0000 C   0  0  0  0  0  0  0  0  0  0  0  0
    2.6190    1.4789    0.0000 C   0  0  0  0  0  0  0  0  0  0  0  0
    2.3387    0.7029    0.0000 C   0  0  2  0  0  0  0  0  0  0  0  0
    1.5266    0.5577    0.0000 C   0  0  2  0  0  0  0  0  0  0  0  0
    1.2463   -0.2182    0.0000 C   0  0  0  0  0  0  0  0  0  0  0  0
    0.4342   -0.3634    0.0000 C   0  0  0  0  0  0  0  0  0  0  0  0
   -0.0976    0.2673    0.0000 C   0  0  0  0  0  0  0  0  0  0  0  0
   -0.9098    0.1221    0.0000 O   0  0  0  0  0  0  0  0  0  0  0  0
    0.1827    1.0432    0.0000 C   0  0  0  0  0  0  0  0  0  0  0  0
    0.9948    1.1884    0.0000 C   0  0  0  0  0  0  0  0  0  0  0  0
    1.7781   -0.8489    0.0000 C   0  0  0  0  0  0  0  0  0  0  0  0
    2.5902   -0.7037    0.0000 C   0  0  0  0  0  0  0  0  0  0  0  0
    1.8069    1.3336    0.0000 C   0  0  0  0  0  0  0  0  0  0  0  0
    4.3228    1.7357    0.0000 C   0  0  0  0  0  0  0  0  0  0  0  0
  1  2  1  0  0  0  0
  2  3  1  0  0  0  0
  3  4  1  0  0  0  0
  4  5  1  1  0  0  0
  5  6  1  0  0  0  0
  5  7  2  0  0  0  0
  4  8  1  6  0  0  0
  4  9  1  0  0  0  0
  9 10  1  0  0  0  0
  2 10  1  1  0  0  0
  3 11  1  0  0  0  0
 11 12  1  0  0  0  0
 13 12  1  1  0  0  0
  1 13  1  0  0  0  0
 13 14  1  0  0  0  0
 14 15  1  0  0  0  0
 15 16  2  0  0  0  0
 16 17  1  0  0  0  0
 17 18  2  0  0  0  0
 17 19  1  0  0  0  0
 19 20  1  0  0  0  0
 14 20  1  0  0  0  0
 15 21  1  0  0  0  0
 21 22  1  0  0  0  0
  1 22  1  6  0  0  0
 14 23  1  1  0  0  0
  3 24  1  1  0  0  0
M  END
>  <Name>
Hydroxyprogesterone

>  <CAS>
68-96-2

>  <Formula>
C21H30O3

>  <MolWt>
330.47 

>  <Bioactivity>
17-Hydroxyprogesterone (17-OHP) is an endogenous progestogen as well as chemical intermediate in the biosynthesis of other steroid hormones, including the corticosteroids and the androgens and the estrogens.

>  <Pathways>
Endocrinology/ Hormones

>  <Target>
Estrogen/Progestogen Receptor agonist

>  <Receptor>
Estrogen/Progestogen receptor agonist

>  <Reference>
1. Boonyaratanakornkit V, et al. Mol Endocrinol. 2007 Feb;21(2):359-75.

$$$$
T1527
  Mrv1561503291623562D          

 22 24  0  0  0  0            999 V2000
   -4.1974    1.4760    0.0000 C   0  0  0  0  0  0  0  0  0  0  0  0
   -4.6099    2.1904    0.0000 C   0  0  0  0  0  0  0  0  0  0  0  0
   -4.1974    2.9049    0.0000 C   0  0  0  0  0  0  0  0  0  0  0  0
   -3.3724    2.9049    0.0000 C   0  0  0  0  0  0  0  0  0  0  0  0
   -2.9599    2.1904    0.0000 C   0  0  0  0  0  0  0  0  0  0  0  0
   -3.3724    1.4760    0.0000 C   0  0  0  0  0  0  0  0  0  0  0  0
   -2.9599    0.7615    0.0000 S   0  0  0  0  0  0  0  0  0  0  0  0
   -2.5474    0.0470    0.0000 N   0  0  0  0  0  0  0  0  0  0  0  0
   -1.7224    0.0470    0.0000 C   0  0  0  0  0  0  0  0  0  0  0  0
   -1.3099   -0.6674    0.0000 N   0  0  0  0  0  0  0  0  0  0  0  0
   -0.4849   -0.6674    0.0000 N   0  0  0  0  0  0  0  0  0  0  0  0
   -0.0000   -1.3349    0.0000 C   0  0  0  0  0  0  0  0  0  0  0  0
    0.7846   -1.0799    0.0000 C   0  0  0  0  0  0  0  0  0  0  0  0
    0.7846   -0.2549    0.0000 C   0  0  0  0  0  0  0  0  0  0  0  0
   -0.0000   -0.0000    0.0000 C   0  0  0  0  0  0  0  0  0  0  0  0
    1.5692    0.0000    0.0000 C   0  0  0  0  0  0  0  0  0  0  0  0
    2.0542   -0.6674    0.0000 C   0  0  0  0  0  0  0  0  0  0  0  0
    1.5692   -1.3349    0.0000 C   0  0  0  0  0  0  0  0  0  0  0  0
   -1.3099    0.7615    0.0000 O   0  0  0  0  0  0  0  0  0  0  0  0
   -2.2455    1.1740    0.0000 O   0  0  0  0  0  0  0  0  0  0  0  0
   -3.6744    0.3490    0.0000 O   0  0  0  0  0  0  0  0  0  0  0  0
   -4.6099    3.6194    0.0000 C   0  0  0  0  0  0  0  0  0  0  0  0
  1  2  2  0  0  0  0
  2  3  1  0  0  0  0
  3  4  2  0  0  0  0
  4  5  1  0  0  0  0
  5  6  2  0  0  0  0
  1  6  1  0  0  0  0
  6  7  1  0  0  0  0
  7  8  1  0  0  0  0
  8  9  1  0  0  0  0
  9 10  1  0  0  0  0
 10 11  1  0  0  0  0
 11 12  1  0  0  0  0
 12 13  1  0  0  0  0
 13 14  1  0  0  0  0
 14 15  1  0  0  0  0
 11 15  1  0  0  0  0
 14 16  1  0  0  0  0
 16 17  1  0  0  0  0
 17 18  1  0  0  0  0
 13 18  1  0  0  0  0
  9 19  2  0  0  0  0
  7 20  2  0  0  0  0
  7 21  2  0  0  0  0
  3 22  1  0  0  0  0
M  END
>  <Name>
Gliclazide

>  <CAS>
21187-98-4

>  <Formula>
C15H21N3O3S

>  <MolWt>
323.42 

>  <Bioactivity>
An oral sulfonylurea hypoglycemic agent which stimulates insulin secretion.

>  <Pathways>
Tyrosine Kinase/Adaptors; Membrane Transporter/Ion Channel

>  <Target>
Potassium Channel inhibitor;VEGF A

>  <Receptor>
ABCC;Potassium Channel ;VEGF A

>  <Reference>
1. Mamputu JC, Renier G. J Diabetes Complications. 2002 Jul-Aug;16(4):284-93. 

$$$$
T0199
  Mrv1561503291623562D          

 26 26  0  0  1  0            999 V2000
   -1.3638    1.3112    0.0000 C   0  0  1  0  0  0  0  0  0  0  0  0
   -2.1607    1.0977    0.0000 N   0  0  0  0  0  0  0  0  0  0  0  0
   -0.7804    0.7279    0.0000 C   0  0  0  0  0  0  0  0  0  0  0  0
    0.0165    0.9414    0.0000 O   0  0  0  0  0  0  0  0  0  0  0  0
   -0.9939   -0.0690    0.0000 N   0  0  0  0  0  0  0  0  0  0  0  0
   -0.4106   -0.6524    0.0000 C   0  0  1  0  0  0  0  0  0  0  0  0
    0.4144   -0.6524    0.0000 C   0  0  1  0  0  0  0  0  0  0  0  0
    1.1289   -0.2399    0.0000 S   0  0  0  0  0  0  0  0  0  0  0  0
    1.8434   -0.6524    0.0000 C   0  0  0  0  0  0  0  0  0  0  0  0
    1.8434   -1.4774    0.0000 C   0  0  0  0  0  0  0  0  0  0  0  0
    1.1289   -1.8899    0.0000 C   0  0  0  0  0  0  0  0  0  0  0  0
    0.4144   -1.4774    0.0000 N   0  0  0  0  0  0  0  0  0  0  0  0
   -0.4106   -1.4774    0.0000 C   0  0  0  0  0  0  0  0  0  0  0  0
   -0.9939   -2.0607    0.0000 O   0  0  0  0  0  0  0  0  0  0  0  0
    1.1289   -2.7149    0.0000 C   0  0  0  0  0  0  0  0  0  0  0  0
    1.8434   -3.1274    0.0000 O   0  0  0  0  0  0  0  0  0  0  0  0
    0.4144   -3.1274    0.0000 O   0  0  0  0  0  0  0  0  0  0  0  0
    2.5578   -1.8899    0.0000 C   0  0  0  0  0  0  0  0  0  0  0  0
   -1.1503    2.1081    0.0000 C   0  0  0  0  0  0  0  0  0  0  0  0
   -1.7336    2.6915    0.0000 C   0  0  0  0  0  0  0  0  0  0  0  0
   -1.5201    3.4884    0.0000 C   0  0  0  0  0  0  0  0  0  0  0  0
   -0.7232    3.7019    0.0000 C   0  0  0  0  0  0  0  0  0  0  0  0
   -0.1398    3.1185    0.0000 C   0  0  0  0  0  0  0  0  0  0  0  0
   -0.3534    2.3217    0.0000 C   0  0  0  0  0  0  0  0  0  0  0  0
    4.9150    0.0000    0.0000 O   0  0  0  0  0  0  0  0  0  0  0  0
    0.0000   -4.7774    0.0000 O   0  0  0  0  0  0  0  0  0  0  0  0
  1  2  1  6  0  0  0
  1  3  1  0  0  0  0
  3  4  2  0  0  0  0
  3  5  1  0  0  0  0
  6  5  1  1  0  0  0
  6  7  1  0  0  0  0
  7  8  1  0  0  0  0
  8  9  1  0  0  0  0
  9 10  1  0  0  0  0
 10 11  2  0  0  0  0
 11 12  1  0  0  0  0
  7 12  1  1  0  0  0
 12 13  1  0  0  0  0
  6 13  1  0  0  0  0
 13 14  2  0  0  0  0
 11 15  1  0  0  0  0
 15 16  1  0  0  0  0
 15 17  2  0  0  0  0
 10 18  1  0  0  0  0
  1 19  1  0  0  0  0
 19 20  2  0  0  0  0
 20 21  1  0  0  0  0
 21 22  1  0  0  0  0
 22 23  2  0  0  0  0
 23 24  1  0  0  0  0
 19 24  1  0  0  0  0
M  END
>  <Name>
Cephradine

>  <CAS>
38821-53-3

>  <Formula>
C16H19N3O4S

>  <MolWt>
349.41 

>  <Bioactivity>
Cephradine anhydrous is a Cephalosporin Antibacterial. The chemical classification of cephradine anhydrous is Cephalosporins.

>  <Pathways>
Microbiology & Virology

>  <Target>
Antibiotic

>  <Receptor>
PBPs

>  <Reference>
1. Sharma UK, et al. J Bacteriol. 1995 Dec; 177(23):6745-50.

$$$$
T0335
  Mrv1561503291623562D          

 11 10  0  0  0  0            999 V2000
   -0.0000    0.0000    0.0000 C   0  0  0  0  0  0  0  0  0  0  0  0
   -0.0000    0.8250    0.0000 C   0  0  0  0  0  0  0  0  0  0  0  0
    0.7145    1.2375    0.0000 C   0  0  0  0  0  0  0  0  0  0  0  0
    1.4289    0.8250    0.0000 C   0  0  0  0  0  0  0  0  0  0  0  0
    1.4289   -0.0000    0.0000 C   0  0  0  0  0  0  0  0  0  0  0  0
    0.7145   -0.4125    0.0000 C   0  0  0  0  0  0  0  0  0  0  0  0
    0.7145    2.0625    0.0000 O   0  0  0  0  0  0  0  0  0  0  0  0
   -0.7145    1.2375    0.0000 C   0  0  0  0  0  0  0  0  0  0  0  0
   -0.7145    2.0625    0.0000 O   0  0  0  0  0  0  0  0  0  0  0  0
   -1.4289    0.8250    0.0000 O   0  5  0  0  0  0  0  0  0  0  0  0
   -2.1434    0.4125    0.0000 Na  0  3  0  0  0  0  0  0  0  0  0  0
  1  2  2  0  0  0  0
  2  3  1  0  0  0  0
  3  4  2  0  0  0  0
  4  5  1  0  0  0  0
  5  6  2  0  0  0  0
  1  6  1  0  0  0  0
  3  7  1  0  0  0  0
  2  8  1  0  0  0  0
  8  9  2  0  0  0  0
  8 10  1  0  0  0  0
M  CHG  2  10  -1  11   1
M  END
>  <Name>
Sodium salicylate

>  <CAS>
54-21-7

>  <Formula>
C7H5NaO3

>  <MolWt>
160.11 

>  <Bioactivity>
A non-steroidal anti-inflammatory agent that is less effective than equal doses of ASPIRIN in relieving pain and reducing fever. However, individuals who are hypersensitive to ASPIRIN may tolerate sodium salicylate. In general, this salicylate produces the same adverse reactions as ASPIRIN, but there is less occult gastrointestinal bleeding. (From AMA Drug Evaluations Annual, 1992, p120)  

>  <Pathways>
Neuroscience;Immunology/Inflammation

>  <Target>
NF-?B inhibitor;COX

>  <Receptor>
NF-?B;Prostaglandin G/H synthase 1/2

>  <Reference>
1. Kopp E, et al. Science, 1994, 265(5174), 956-959.

$$$$
148553-50-8
  Mrv1561503291623562D          

 11 10  0  0  1  0            999 V2000
    3.9039    1.4289    0.0000 C   0  0  2  0  0  0  0  0  0  0  0  0
    3.1895    1.8414    0.0000 C   0  0  0  0  0  0  0  0  0  0  0  0
    2.4750    1.4289    0.0000 C   0  0  0  0  0  0  0  0  0  0  0  0
    1.7605    1.8414    0.0000 O   0  0  0  0  0  0  0  0  0  0  0  0
    2.4750    0.6039    0.0000 O   0  0  0  0  0  0  0  0  0  0  0  0
    4.6184    1.8414    0.0000 C   0  0  0  0  0  0  0  0  0  0  0  0
    5.3329    1.4289    0.0000 C   0  0  0  0  0  0  0  0  0  0  0  0
    6.0474    1.8414    0.0000 C   0  0  0  0  0  0  0  0  0  0  0  0
    5.3329    0.6039    0.0000 C   0  0  0  0  0  0  0  0  0  0  0  0
    3.9039    0.6039    0.0000 C   0  0  0  0  0  0  0  0  0  0  0  0
    4.6184    0.1914    0.0000 N   0  0  0  0  0  0  0  0  0  0  0  0
  1  2  1  0  0  0  0
  2  3  1  0  0  0  0
  3  4  2  0  0  0  0
  3  5  1  0  0  0  0
  1  6  1  0  0  0  0
  6  7  1  0  0  0  0
  7  8  1  0  0  0  0
  7  9  1  0  0  0  0
  1 10  1  6  0  0  0
 10 11  1  0  0  0  0
M  END
>  <Name>
Pregabalin

>  <CAS>
148553-50-8

>  <Formula>
C8H17NO2

>  <MolWt>
159.23 

>  <Bioactivity>
Pregabalin is an anticonvulsant drug used for neuropathic pain, as an adjunct therapy for partial seizures, and in generalized anxiety disorder. It was designed as a more potent successor to gabapentin. Pregabalin is marketed by Pfizer under the trade name Lyrica. It is considered to have a dependence liability if misused, and is classified as a Schedule V drug in the U.S.  

>  <Pathways>
Membrane Transporter/Ion Channel

>  <Target>
Calcium Channel inhibitor

>  <Receptor>
Calcium Channel

>  <Reference>
1. Gazulla J, Tintore M. Acta Neurol Scand. 2007 May; 115(5):356-63. 

$$$$
71675-85-9
  Mrv1561503291623562D          

 25 26  0  0  0  0            999 V2000
    0.7145   -0.4125    0.0000 C   0  0  0  0  0  0  0  0  0  0  0  0
   -0.0000   -0.0000    0.0000 C   0  0  0  0  0  0  0  0  0  0  0  0
   -0.7145   -0.4125    0.0000 S   0  0  0  0  0  0  0  0  0  0  0  0
   -1.4289   -0.8250    0.0000 C   0  0  0  0  0  0  0  0  0  0  0  0
   -2.1434   -0.4125    0.0000 C   0  0  0  0  0  0  0  0  0  0  0  0
   -0.3020   -1.1270    0.0000 O   0  0  0  0  0  0  0  0  0  0  0  0
   -1.1270    0.3020    0.0000 O   0  0  0  0  0  0  0  0  0  0  0  0
   -0.0000    0.8250    0.0000 C   0  0  0  0  0  0  0  0  0  0  0  0
    0.7145    1.2375    0.0000 C   0  0  0  0  0  0  0  0  0  0  0  0
    1.4289    0.8250    0.0000 C   0  0  0  0  0  0  0  0  0  0  0  0
    1.4289   -0.0000    0.0000 C   0  0  0  0  0  0  0  0  0  0  0  0
    2.1434   -0.4125    0.0000 C   0  0  0  0  0  0  0  0  0  0  0  0
    2.1434   -1.2375    0.0000 N   0  0  0  0  0  0  0  0  0  0  0  0
    2.8579   -1.6500    0.0000 C   0  0  0  0  0  0  0  0  0  0  0  0
    2.8579   -2.4750    0.0000 C   0  0  0  0  0  0  0  0  0  0  0  0
    3.5253   -2.9599    0.0000 N   0  0  0  0  0  0  0  0  0  0  0  0
    3.2704   -3.7445    0.0000 C   0  0  0  0  0  0  0  0  0  0  0  0
    2.4454   -3.7445    0.0000 C   0  0  0  0  0  0  0  0  0  0  0  0
    2.1904   -2.9599    0.0000 C   0  0  0  0  0  0  0  0  0  0  0  0
    4.3099   -2.7050    0.0000 C   0  0  0  0  0  0  0  0  0  0  0  0
    4.9230   -3.2570    0.0000 C   0  0  0  0  0  0  0  0  0  0  0  0
    2.8579   -0.0000    0.0000 O   0  0  0  0  0  0  0  0  0  0  0  0
    2.1434    1.2375    0.0000 O   0  0  0  0  0  0  0  0  0  0  0  0
    2.8579    0.8250    0.0000 C   0  0  0  0  0  0  0  0  0  0  0  0
   -0.7145    1.2375    0.0000 N   0  0  0  0  0  0  0  0  0  0  0  0
  1  2  2  0  0  0  0
  2  3  1  0  0  0  0
  3  4  1  0  0  0  0
  4  5  1  0  0  0  0
  3  6  2  0  0  0  0
  3  7  2  0  0  0  0
  2  8  1  0  0  0  0
  8  9  2  0  0  0  0
  9 10  1  0  0  0  0
 10 11  2  0  0  0  0
  1 11  1  0  0  0  0
 11 12  1  0  0  0  0
 12 13  1  0  0  0  0
 13 14  1  0  0  0  0
 14 15  1  0  0  0  0
 15 16  1  0  0  0  0
 16 17  1  0  0  0  0
 17 18  1  0  0  0  0
 18 19  1  0  0  0  0
 15 19  1  0  0  0  0
 16 20  1  0  0  0  0
 20 21  1  0  0  0  0
 12 22  2  0  0  0  0
 10 23  1  0  0  0  0
 23 24  1  0  0  0  0
  8 25  1  0  0  0  0
M  END
>  <Name>
Amisulpride

>  <CAS>
71675-85-9

>  <Formula>
C17H27N3O4S

>  <MolWt>
369.49 

>  <Bioactivity>
Amisulpride (trade name Solian) is an antipsychotic drug sold by Sanofi-Aventis. It is not approved for use in the United States, but is approved for use in Europe and Australia for the treatment of psychoses and schizophrenia. Additionally, it is approved in Italy for the treatment of dysthymia (under the brand name Deniban). Amisulpride is a selective dopamine antagonist. 

>  <Pathways>
Neuroscience

>  <Target>
Dopamine Receptor antagonist;5-HT receptor antagonist

>  <Receptor>
Dopamine receptor;5-HT receptor

>  <Reference>
1. Rosenzweig P, et al. Hum Psychopharmacol. 2002 Jan;17(1):1-13. 

$$$$
T1444
  Mrv1561503291623562D          

 25 27  0  0  0  0            999 V2000
   -0.0000    0.0000    0.0000 C   0  0  0  0  0  0  0  0  0  0  0  0
   -0.7145   -0.4125    0.0000 C   0  0  0  0  0  0  0  0  0  0  0  0
   -1.4289    0.0000    0.0000 F   0  0  0  0  0  0  0  0  0  0  0  0
   -0.7145   -1.2375    0.0000 C   0  0  0  0  0  0  0  0  0  0  0  0
   -0.0000   -1.6500    0.0000 C   0  0  0  0  0  0  0  0  0  0  0  0
    0.7145   -1.2375    0.0000 C   0  0  0  0  0  0  0  0  0  0  0  0
    0.7145   -0.4125    0.0000 C   0  0  0  0  0  0  0  0  0  0  0  0
    1.4289    0.0000    0.0000 C   0  0  0  0  0  0  0  0  0  0  0  0
    2.1434   -0.4125    0.0000 C   0  0  0  0  0  0  0  0  0  0  0  0
    2.1434   -1.2375    0.0000 C   0  0  0  0  0  0  0  0  0  0  0  0
    1.4289   -1.6500    0.0000 N   0  0  0  0  0  0  0  0  0  0  0  0
    1.4289   -2.4750    0.0000 C   0  0  0  0  0  0  0  0  0  0  0  0
    0.7145   -2.8875    0.0000 C   0  0  0  0  0  0  0  0  0  0  0  0
    2.8579    0.0000    0.0000 C   0  0  0  0  0  0  0  0  0  0  0  0
    3.5724   -0.4125    0.0000 O   0  0  0  0  0  0  0  0  0  0  0  0
    2.8579    0.8250    0.0000 O   0  0  0  0  0  0  0  0  0  0  0  0
    1.4289    0.8250    0.0000 O   0  0  0  0  0  0  0  0  0  0  0  0
   -0.0000   -2.4750    0.0000 F   0  0  0  0  0  0  0  0  0  0  0  0
   -1.4289   -1.6500    0.0000 N   0  0  0  0  0  0  0  0  0  0  0  0
   -1.4289   -2.4750    0.0000 C   0  0  0  0  0  0  0  0  0  0  0  0
   -2.1434   -2.8875    0.0000 C   0  0  0  0  0  0  0  0  0  0  0  0
   -2.8579   -2.4750    0.0000 N   0  0  0  0  0  0  0  0  0  0  0  0
   -2.8579   -1.6500    0.0000 C   0  0  0  0  0  0  0  0  0  0  0  0
   -2.1434   -1.2375    0.0000 C   0  0  0  0  0  0  0  0  0  0  0  0
   -2.1434   -3.7125    0.0000 C   0  0  0  0  0  0  0  0  0  0  0  0
  1  2  2  0  0  0  0
  2  3  1  0  0  0  0
  2  4  1  0  0  0  0
  4  5  2  0  0  0  0
  5  6  1  0  0  0  0
  6  7  2  0  0  0  0
  1  7  1  0  0  0  0
  7  8  1  0  0  0  0
  8  9  1  0  0  0  0
  9 10  2  0  0  0  0
 10 11  1  0  0  0  0
  6 11  1  0  0  0  0
 11 12  1  0  0  0  0
 12 13  1  0  0  0  0
  9 14  1  0  0  0  0
 14 15  1  0  0  0  0
 14 16  2  0  0  0  0
  8 17  2  0  0  0  0
  5 18  1  0  0  0  0
  4 19  1  0  0  0  0
 19 20  1  0  0  0  0
 20 21  1  0  0  0  0
 21 22  1  0  0  0  0
 22 23  1  0  0  0  0
 23 24  1  0  0  0  0
 19 24  1  0  0  0  0
 21 25  1  0  0  0  0
M  END
>  <Name>
Lomefloxacin

>  <CAS>
98079-51-7

>  <Formula>
C17H19F2N3O3

>  <MolWt>
351.35 

>  <Bioactivity>
Lomefloxacin is a fluoroquinolone antibiotic, used to treat bacterial infections including bronchitis and urinary tract infections. It is also used to prevent urinary tract infections prior to surgery. 

>  <Pathways>
DNA Damage/DNA Repair

>  <Target>
Topoisomerase inhibitor

>  <Receptor>
Topoisomerase II, IV

>  <Reference>
1. Takenouchi T, et al. Antimicrob Agents Chemother. 1995 Jul;39(7):1414-8

$$$$
T0841
  Mrv1561503291623562D          

 25 26  0  0  0  0            999 V2000
   -0.7145   -2.8875    0.0000 C   0  0  0  0  0  0  0  0  0  0  0  0
   -1.4289   -2.4750    0.0000 C   0  0  0  0  0  0  0  0  0  0  0  0
   -1.4289   -1.6500    0.0000 C   0  0  0  0  0  0  0  0  0  0  0  0
   -0.7145   -1.2375    0.0000 C   0  0  0  0  0  0  0  0  0  0  0  0
   -0.0000   -1.6500    0.0000 C   0  0  0  0  0  0  0  0  0  0  0  0
   -0.0000   -2.4750    0.0000 C   0  0  0  0  0  0  0  0  0  0  0  0
    0.7145   -2.8875    0.0000 C   0  0  0  0  0  0  0  0  0  0  0  0
    1.4289   -2.4750    0.0000 N   0  0  0  0  0  0  0  0  0  0  0  0
    2.1434   -2.8875    0.0000 C   0  0  0  0  0  0  0  0  0  0  0  0
    2.8579   -2.4750    0.0000 C   0  0  0  0  0  0  0  0  0  0  0  0
    3.5724   -2.8875    0.0000 C   0  0  0  0  0  0  0  0  0  0  0  0
    4.2868   -2.4750    0.0000 C   0  0  0  0  0  0  0  0  0  0  0  0
    5.0013   -2.8875    0.0000 C   0  0  0  0  0  0  0  0  0  0  0  0
    5.0013   -3.7125    0.0000 C   0  0  0  0  0  0  0  0  0  0  0  0
    5.7158   -4.1250    0.0000 O   0  0  0  0  0  0  0  0  0  0  0  0
    5.7158   -4.9500    0.0000 C   0  0  0  0  0  0  0  0  0  0  0  0
    5.7158   -5.7750    0.0000 C   0  0  0  0  0  0  0  0  0  0  0  0
    6.4302   -6.1875    0.0000 O   0  0  0  0  0  0  0  0  0  0  0  0
    5.0013   -6.1875    0.0000 O   0  0  0  0  0  0  0  0  0  0  0  0
    6.5408   -4.9500    0.0000 C   0  0  0  0  0  0  0  0  0  0  0  0
    4.8908   -4.9500    0.0000 C   0  0  0  0  0  0  0  0  0  0  0  0
    4.2868   -4.1250    0.0000 C   0  0  0  0  0  0  0  0  0  0  0  0
    3.5724   -3.7125    0.0000 C   0  0  0  0  0  0  0  0  0  0  0  0
    0.7145   -3.7125    0.0000 O   0  0  0  0  0  0  0  0  0  0  0  0
   -2.1434   -1.2375    0.0000 Cl  0  0  0  0  0  0  0  0  0  0  0  0
  1  2  2  0  0  0  0
  2  3  1  0  0  0  0
  3  4  2  0  0  0  0
  4  5  1  0  0  0  0
  5  6  2  0  0  0  0
  1  6  1  0  0  0  0
  6  7  1  0  0  0  0
  7  8  1  0  0  0  0
  8  9  1  0  0  0  0
  9 10  1  0  0  0  0
 10 11  1  0  0  0  0
 11 12  2  0  0  0  0
 12 13  1  0  0  0  0
 13 14  2  0  0  0  0
 14 15  1  0  0  0  0
 15 16  1  0  0  0  0
 16 17  1  0  0  0  0
 17 18  1  0  0  0  0
 17 19  2  0  0  0  0
 16 20  1  0  0  0  0
 16 21  1  0  0  0  0
 14 22  1  0  0  0  0
 22 23  2  0  0  0  0
 11 23  1  0  0  0  0
  7 24  2  0  0  0  0
  3 25  1  0  0  0  0
M  END
>  <Name>
Bezafibrate

>  <CAS>
41859-67-0

>  <Formula>
C19H20ClNO4

>  <MolWt>
361.82 

>  <Bioactivity>
An antilipemic agent that lowers CHOLESTEROL and TRIGLYCERIDES. It decreases LOW DENSITY LIPOPROTEINS and increases HIGH DENSITY LIPOPROTEINS. 

>  <Pathways>
Metabolism

>  <Target>
PPAR agonist

>  <Receptor>
PPAR?

>  <Reference>
1. Tenenbaum A, et al. Cardiovasc Diabetol. 2005 Sep 16;4:14. 

$$$$
747-36-4
  Mrv1561503291623562D          

 28 28  0  0  0  0            999 V2000
   -0.9940   -0.6098    0.0000 C   0  0  0  0  0  0  0  0  0  0  0  0
   -1.7085   -0.1973    0.0000 C   0  0  0  0  0  0  0  0  0  0  0  0
   -2.4230   -0.6098    0.0000 C   0  0  0  0  0  0  0  0  0  0  0  0
   -2.4230   -1.4348    0.0000 C   0  0  0  0  0  0  0  0  0  0  0  0
   -1.7085   -1.8473    0.0000 C   0  0  0  0  0  0  0  0  0  0  0  0
   -0.9940   -1.4348    0.0000 C   0  0  0  0  0  0  0  0  0  0  0  0
   -1.7085   -2.6723    0.0000 Cl  0  0  0  0  0  0  0  0  0  0  0  0
   -3.1375   -0.1973    0.0000 N   0  0  0  0  0  0  0  0  0  0  0  0
   -3.1375    0.6277    0.0000 C   0  0  0  0  0  0  0  0  0  0  0  0
   -2.4230    1.0402    0.0000 C   0  0  0  0  0  0  0  0  0  0  0  0
   -1.7085    0.6277    0.0000 C   0  0  0  0  0  0  0  0  0  0  0  0
   -0.9940    1.0402    0.0000 N   0  0  0  0  0  0  0  0  0  0  0  0
   -0.2796    0.6277    0.0000 C   0  0  0  0  0  0  0  0  0  0  0  0
    0.4349    1.0402    0.0000 C   0  0  0  0  0  0  0  0  0  0  0  0
    1.1494    0.6277    0.0000 C   0  0  0  0  0  0  0  0  0  0  0  0
    1.8638    1.0402    0.0000 C   0  0  0  0  0  0  0  0  0  0  0  0
    2.5783    0.6277    0.0000 N   0  0  0  0  0  0  0  0  0  0  0  0
    3.2928    1.0402    0.0000 C   0  0  0  0  0  0  0  0  0  0  0  0
    4.0073    0.6277    0.0000 C   0  0  0  0  0  0  0  0  0  0  0  0
    4.7217    1.0402    0.0000 O   0  0  0  0  0  0  0  0  0  0  0  0
    2.5783   -0.1973    0.0000 C   0  0  0  0  0  0  0  0  0  0  0  0
    3.2928   -0.6098    0.0000 C   0  0  0  0  0  0  0  0  0  0  0  0
   -0.2796   -0.1973    0.0000 C   0  0  0  0  0  0  0  0  0  0  0  0
    7.3146   -0.8250    0.0000 O   0  0  0  0  0  0  0  0  0  0  0  0
    7.3146    0.0000    0.0000 S   0  0  0  0  0  0  0  0  0  0  0  0
    7.3146    0.8250    0.0000 O   0  0  0  0  0  0  0  0  0  0  0  0
    8.1396   -0.0000    0.0000 O   0  0  0  0  0  0  0  0  0  0  0  0
    6.4896    0.0000    0.0000 O   0  0  0  0  0  0  0  0  0  0  0  0
  1  2  2  0  0  0  0
  2  3  1  0  0  0  0
  3  4  2  0  0  0  0
  4  5  1  0  0  0  0
  5  6  2  0  0  0  0
  1  6  1  0  0  0  0
  5  7  1  0  0  0  0
  3  8  1  0  0  0  0
  8  9  2  0  0  0  0
  9 10  1  0  0  0  0
 10 11  2  0  0  0  0
  2 11  1  0  0  0  0
 11 12  1  0  0  0  0
 12 13  1  0  0  0  0
 13 14  1  0  0  0  0
 14 15  1  0  0  0  0
 15 16  1  0  0  0  0
 16 17  1  0  0  0  0
 17 18  1  0  0  0  0
 18 19  1  0  0  0  0
 19 20  1  0  0  0  0
 17 21  1  0  0  0  0
 21 22  1  0  0  0  0
 13 23  1  0  0  0  0
 24 25  2  0  0  0  0
 25 26  1  0  0  0  0
 25 27  1  0  0  0  0
 25 28  2  0  0  0  0
M  END
>  <Name>
Hydroxychloroquine sulfate

>  <CAS>
747-36-4

>  <Formula>
C18H26ClN3O.H2SO4

>  <MolWt>
433.95 

>  <Bioactivity>
Hydroxychloroquine Sulfate is an antimalarial agent used for the treatment of systemic lupus erythematosus, rheumatoid arthritis and other autoimmune, inflammatory and dermatologic conditions. Also acts as an inhibitor of autophagy and toll-like receptor (TLR) 7/9.

>  <Pathways>
Ubiquitination; Immunology/Inflammation

>  <Target>
Autophagy inhibitor;TLR antagonist

>  <Receptor>
DNA;TLR 7/9

>  <Reference>
1. Koranda FC: Antimalarials. J Am Acad Dermatol. 1981 Jun;4(6):650-5. 

$$$$
52-86-8
  Mrv1561503291623562D          

 26 28  0  0  0  0            999 V2000
   -3.9525   -4.2185    0.0000 C   0  0  0  0  0  0  0  0  0  0  0  0
   -3.1401   -4.0752    0.0000 C   0  0  0  0  0  0  0  0  0  0  0  0
   -2.8579   -3.3000    0.0000 C   0  0  0  0  0  0  0  0  0  0  0  0
   -2.8579   -2.4750    0.0000 C   0  0  0  0  0  0  0  0  0  0  0  0
   -2.1434   -2.0625    0.0000 C   0  0  0  0  0  0  0  0  0  0  0  0
   -1.4289   -2.4750    0.0000 N   0  0  0  0  0  0  0  0  0  0  0  0
   -0.7145   -2.0625    0.0000 C   0  0  0  0  0  0  0  0  0  0  0  0
   -0.0000   -2.4750    0.0000 C   0  0  0  0  0  0  0  0  0  0  0  0
    0.7145   -2.0625    0.0000 C   0  0  0  0  0  0  0  0  0  0  0  0
    1.4289   -2.4750    0.0000 C   0  0  0  0  0  0  0  0  0  0  0  0
    2.1434   -2.0625    0.0000 C   0  0  0  0  0  0  0  0  0  0  0  0
    2.1434   -1.2375    0.0000 C   0  0  0  0  0  0  0  0  0  0  0  0
    2.8579   -0.8250    0.0000 C   0  0  0  0  0  0  0  0  0  0  0  0
    3.5724   -1.2375    0.0000 C   0  0  0  0  0  0  0  0  0  0  0  0
    4.2868   -0.8250    0.0000 F   0  0  0  0  0  0  0  0  0  0  0  0
    3.5724   -2.0625    0.0000 C   0  0  0  0  0  0  0  0  0  0  0  0
    2.8579   -2.4750    0.0000 C   0  0  0  0  0  0  0  0  0  0  0  0
    1.4289   -3.3000    0.0000 O   0  0  0  0  0  0  0  0  0  0  0  0
   -1.4289   -3.3000    0.0000 C   0  0  0  0  0  0  0  0  0  0  0  0
   -2.1434   -3.7125    0.0000 C   0  0  0  0  0  0  0  0  0  0  0  0
   -3.6704   -3.1567    0.0000 O   0  0  0  0  0  0  0  0  0  0  0  0
   -2.6098   -4.7072    0.0000 C   0  0  0  0  0  0  0  0  0  0  0  0
   -2.8919   -5.4825    0.0000 C   0  0  0  0  0  0  0  0  0  0  0  0
   -3.7044   -5.6257    0.0000 C   0  0  0  0  0  0  0  0  0  0  0  0
   -4.2347   -4.9938    0.0000 C   0  0  0  0  0  0  0  0  0  0  0  0
   -3.9866   -6.4010    0.0000 Cl  0  0  0  0  0  0  0  0  0  0  0  0
  1  2  2  0  0  0  0
  2  3  1  0  0  0  0
  3  4  1  0  0  0  0
  4  5  1  0  0  0  0
  5  6  1  0  0  0  0
  6  7  1  0  0  0  0
  7  8  1  0  0  0  0
  8  9  1  0  0  0  0
  9 10  1  0  0  0  0
 10 11  1  0  0  0  0
 11 12  2  0  0  0  0
 12 13  1  0  0  0  0
 13 14  2  0  0  0  0
 14 15  1  0  0  0  0
 14 16  1  0  0  0  0
 16 17  2  0  0  0  0
 11 17  1  0  0  0  0
 10 18  2  0  0  0  0
  6 19  1  0  0  0  0
 19 20  1  0  0  0  0
  3 20  1  0  0  0  0
  3 21  1  0  0  0  0
  2 22  1  0  0  0  0
 22 23  2  0  0  0  0
 23 24  1  0  0  0  0
 24 25  2  0  0  0  0
  1 25  1  0  0  0  0
 24 26  1  0  0  0  0
M  END
>  <Name>
Haloperidol

>  <CAS>
52-86-8

>  <Formula>
C21H23ClFNO2

>  <MolWt>
375.87 

>  <Bioactivity>
Haloperidol has been found to be highlt potent neuroleptic by relieving nervous through the depression of nerve function. Besides, Haloperidol has shown about 50-fold potency than chiorpromazine, the other antipsychotic drug. Haloperidol has shown beneficial effects in the treatment of delusions and hallucinations. These effects are mainly achieved through blockage of dopamine receptors in the mesocortex and limbic system. 

>  <Pathways>
Neuroscience

>  <Target>
5-HT Receptor antagonist;Dopamine Receptor antagonist

>  <Receptor>
5-HT receptor;Dopamine receptor

>  <Reference>
1. Cai G, et al. Mol Pharmacol. 1999 Nov;56(5):989-96.

$$$$
50-70-4
  Mrv1561503291623562D          

 12 11  0  0  0  0            999 V2000
    1.7605    1.8414    0.0000 C   0  0  0  0  0  0  0  0  0  0  0  0
    2.4750    1.4289    0.0000 C   0  0  0  0  0  0  0  0  0  0  0  0
    3.1895    1.8414    0.0000 C   0  0  0  0  0  0  0  0  0  0  0  0
    3.9039    1.4289    0.0000 C   0  0  0  0  0  0  0  0  0  0  0  0
    4.6184    1.8414    0.0000 C   0  0  0  0  0  0  0  0  0  0  0  0
    5.3329    1.4289    0.0000 C   0  0  0  0  0  0  0  0  0  0  0  0
    6.0474    1.8414    0.0000 O   0  0  0  0  0  0  0  0  0  0  0  0
    4.6184    2.6664    0.0000 O   0  0  0  0  0  0  0  0  0  0  0  0
    3.9039    0.6039    0.0000 O   0  0  0  0  0  0  0  0  0  0  0  0
    3.1895    2.6664    0.0000 O   0  0  0  0  0  0  0  0  0  0  0  0
    2.4750    0.6039    0.0000 O   0  0  0  0  0  0  0  0  0  0  0  0
    1.0461    1.4289    0.0000 O   0  0  0  0  0  0  0  0  0  0  0  0
  1  2  1  0  0  0  0
  2  3  1  0  0  0  0
  3  4  1  0  0  0  0
  4  5  1  0  0  0  0
  5  6  1  0  0  0  0
  6  7  1  0  0  0  0
  5  8  1  0  0  0  0
  4  9  1  0  0  0  0
  3 10  1  0  0  0  0
  2 11  1  0  0  0  0
  1 12  1  0  0  0  0
M  END
>  <Name>
D-Sorbitol

>  <CAS>
50-70-4

>  <Formula>
C6H14O6

>  <MolWt>
182.17 

>  <Bioactivity>
A polyhydric alcohol with about half the sweetness of sucrose. Sorbitol occurs naturally and is also produced synthetically from glucose. It was formerly used as a diuretic and may still be used as a laxative and in irrigating solutions for some surgical procedures. It is also used in many manufacturing processes, as a pharmaceutical aid, and in several research applications. 

>  <Pathways>
Others

>  <Target>
Others

>  <Receptor>
Xylose isomerase, Malate synthase G

>  <Reference>
1. Kim JH, et al. Appl Biochem Biotechnol. 2015 Mar 27.

$$$$
72-33-3
  Mrv1561503291623562D          

 23 26  0  0  1  0            999 V2000
    0.7475   -2.9779    0.0000 C   0  0  1  0  0  0  0  0  0  0  0  0
    1.5596   -2.8327    0.0000 C   0  0  1  0  0  0  0  0  0  0  0  0
    2.0914   -3.4634    0.0000 C   0  0  1  0  0  0  0  0  0  0  0  0
    2.9035   -3.3182    0.0000 C   0  0  0  0  0  0  0  0  0  0  0  0
    3.1838   -2.5422    0.0000 C   0  0  0  0  0  0  0  0  0  0  0  0
    3.9960   -2.3970    0.0000 C   0  0  0  0  0  0  0  0  0  0  0  0
    4.5278   -3.0277    0.0000 C   0  0  0  0  0  0  0  0  0  0  0  0
    5.3399   -2.8825    0.0000 O   0  0  0  0  0  0  0  0  0  0  0  0
    5.8717   -3.5132    0.0000 C   0  0  0  0  0  0  0  0  0  0  0  0
    4.2475   -3.8037    0.0000 C   0  0  0  0  0  0  0  0  0  0  0  0
    3.4354   -3.9489    0.0000 C   0  0  0  0  0  0  0  0  0  0  0  0
    2.6520   -1.9115    0.0000 C   0  0  0  0  0  0  0  0  0  0  0  0
    1.8399   -2.0567    0.0000 C   0  0  0  0  0  0  0  0  0  0  0  0
    1.8111   -4.2393    0.0000 C   0  0  0  0  0  0  0  0  0  0  0  0
    0.9990   -4.3845    0.0000 C   0  0  0  0  0  0  0  0  0  0  0  0
    0.4672   -3.7538    0.0000 C   0  0  2  0  0  0  0  0  0  0  0  0
   -0.3574   -3.7270    0.0000 C   0  0  1  0  0  0  0  0  0  0  0  0
   -1.1695   -3.8722    0.0000 C   0  0  0  0  0  0  0  0  0  0  0  0
   -1.9816   -4.0174    0.0000 C   0  0  0  0  0  0  0  0  0  0  0  0
   -0.2978   -4.5498    0.0000 O   0  0  0  0  0  0  0  0  0  0  0  0
   -0.5867   -2.9345    0.0000 C   0  0  0  0  0  0  0  0  0  0  0  0
    0.0962   -2.4715    0.0000 C   0  0  0  0  0  0  0  0  0  0  0  0
    0.1073   -4.4962    0.0000 C   0  0  0  0  0  0  0  0  0  0  0  0
  1  2  1  0  0  0  0
  2  3  1  0  0  0  0
  3  4  1  0  0  0  0
  4  5  2  0  0  0  0
  5  6  1  0  0  0  0
  6  7  2  0  0  0  0
  7  8  1  0  0  0  0
  8  9  1  0  0  0  0
  7 10  1  0  0  0  0
 10 11  2  0  0  0  0
  4 11  1  0  0  0  0
  5 12  1  0  0  0  0
 12 13  1  0  0  0  0
  2 13  1  6  0  0  0
  3 14  1  1  0  0  0
 14 15  1  0  0  0  0
 15 16  1  0  0  0  0
  1 16  1  0  0  0  0
 16 17  1  0  0  0  0
 17 18  1  6  0  0  0
 18 19  3  0  0  0  0
 17 20  1  1  0  0  0
 17 21  1  0  0  0  0
 21 22  1  0  0  0  0
  1 22  1  1  0  0  0
 16 23  1  1  0  0  0
M  END
>  <Name>
Mestranol

>  <CAS>
72-33-3

>  <Formula>
C21H26O2

>  <MolWt>
310.43 

>  <Bioactivity>
Mestranol is the 3-methyl ether of ethinylestradiol. It was the estrogen used in many of the first oral contraceptives. It is a biologically inactive prodrug of ethinylestradiol to which it is demethylated in the liver with a conversion efficiency of 70%

>  <Pathways>
Endocrinology/ Hormones

>  <Target>
Estrogen/Progestogen Receptor agonist

>  <Receptor>
Estrogen/progestogen Receptor

>  <Reference>
1. IARC Monogr Eval Carcinog Risk Chem Hum. 1979 Dec;21:257-78.

$$$$
T1382
  Mrv1561503291623562D          

 24 26  0  0  1  0            999 V2000
    2.6985    0.4125    0.0000 C   0  0  1  0  0  0  0  0  0  0  0  0
    2.2136    1.0799    0.0000 O   0  0  0  0  0  0  0  0  0  0  0  0
    1.4289    0.8250    0.0000 C   0  0  0  0  0  0  0  0  0  0  0  0
    1.4289   -0.0000    0.0000 C   0  0  0  0  0  0  0  0  0  0  0  0
    2.2136   -0.2549    0.0000 C   0  0  0  0  0  0  0  0  0  0  0  0
    2.2136   -1.0799    0.0000 O   0  0  0  0  0  0  0  0  0  0  0  0
    0.7145   -0.4125    0.0000 C   0  0  0  0  0  0  0  0  0  0  0  0
   -0.0000    0.0000    0.0000 C   0  0  0  0  0  0  0  0  0  0  0  0
   -0.0000    0.8250    0.0000 C   0  0  0  0  0  0  0  0  0  0  0  0
    0.7145    1.2375    0.0000 C   0  0  0  0  0  0  0  0  0  0  0  0
    0.7145    2.0625    0.0000 Cl  0  0  0  0  0  0  0  0  0  0  0  0
   -0.7145    1.2375    0.0000 O   0  0  0  0  0  0  0  0  0  0  0  0
   -1.4289    0.8250    0.0000 C   0  0  0  0  0  0  0  0  0  0  0  0
    0.7145   -1.2375    0.0000 O   0  0  0  0  0  0  0  0  0  0  0  0
   -0.0000   -1.6500    0.0000 C   0  0  0  0  0  0  0  0  0  0  0  0
    3.1110    1.1270    0.0000 C   0  0  1  0  0  0  0  0  0  0  0  0
    3.9360    1.1270    0.0000 C   0  0  0  0  0  0  0  0  0  0  0  0
    4.3485    0.4125    0.0000 C   0  0  0  0  0  0  0  0  0  0  0  0
    5.1735    0.4125    0.0000 O   0  0  0  0  0  0  0  0  0  0  0  0
    3.9360   -0.3020    0.0000 C   0  0  0  0  0  0  0  0  0  0  0  0
    3.1110   -0.3020    0.0000 C   0  0  0  0  0  0  0  0  0  0  0  0
    2.6985   -1.0164    0.0000 O   0  0  0  0  0  0  0  0  0  0  0  0
    3.1110   -1.7309    0.0000 C   0  0  0  0  0  0  0  0  0  0  0  0
    2.6985    1.8414    0.0000 C   0  0  0  0  0  0  0  0  0  0  0  0
  1  2  1  1  0  0  0
  2  3  1  0  0  0  0
  3  4  2  0  0  0  0
  4  5  1  0  0  0  0
  1  5  1  0  0  0  0
  5  6  2  0  0  0  0
  4  7  1  0  0  0  0
  7  8  2  0  0  0  0
  8  9  1  0  0  0  0
  9 10  2  0  0  0  0
  3 10  1  0  0  0  0
 10 11  1  0  0  0  0
  9 12  1  0  0  0  0
 12 13  1  0  0  0  0
  7 14  1  0  0  0  0
 14 15  1  0  0  0  0
  1 16  1  0  0  0  0
 16 17  1  0  0  0  0
 17 18  1  0  0  0  0
 18 19  2  0  0  0  0
 18 20  1  0  0  0  0
 20 21  1  0  0  0  0
  1 21  1  0  0  0  0
 21 22  1  0  0  0  0
 22 23  1  0  0  0  0
 16 24  1  6  0  0  0
M  END
>  <Name>
Griseofulvin

>  <CAS>
126-07-8

>  <Formula>
C17H17ClO6

>  <MolWt>
352.77 

>  <Bioactivity>
Griseofulvin, a production from some strains of the mold Penicillium griseofulvumam, is able to inhibit cell mitosis by interfering with microtubule function.

>  <Pathways>
Cell Cycle/Checkpoint

>  <Target>
Microtubule Associated inhibitor

>  <Receptor>
Tubulin chain

>  <Reference>
1. De Carli L, et al. Mutat Res, 1988, 195(2), 91-126.

$$$$
T0438
  Mrv1561503291623562D          

 37 40  0  0  0  0            999 V2000
    0.0000   -0.8250    0.0000 O   0  0  0  0  0  0  0  0  0  0  0  0
    0.0000    0.0000    0.0000 S   0  0  0  0  0  0  0  0  0  0  0  0
    0.0000    0.8250    0.0000 O   0  5  0  0  0  0  0  0  0  0  0  0
    0.8250   -0.0000    0.0000 O   0  5  0  0  0  0  0  0  0  0  0  0
   -0.8250    0.0000    0.0000 O   0  0  0  0  0  0  0  0  0  0  0  0
    6.5115   -0.9281    0.0000 C   0  0  0  0  0  0  0  0  0  0  0  0
    7.2259   -0.5156    0.0000 C   0  0  0  0  0  0  0  0  0  0  0  0
    7.2259    0.3094    0.0000 C   0  0  0  0  0  0  0  0  0  0  0  0
    6.5115    0.7219    0.0000 N   0  0  0  0  0  0  0  0  0  0  0  0
    5.7970    0.3094    0.0000 C   0  0  0  0  0  0  0  0  0  0  0  0
    5.7970   -0.5156    0.0000 C   0  0  0  0  0  0  0  0  0  0  0  0
    5.0825   -0.9281    0.0000 C   0  0  0  0  0  0  0  0  0  0  0  0
    4.3680   -0.5156    0.0000 C   0  0  0  0  0  0  0  0  0  0  0  0
    4.3680    0.3094    0.0000 C   0  0  0  0  0  0  0  0  0  0  0  0
    5.0825    0.7219    0.0000 C   0  0  0  0  0  0  0  0  0  0  0  0
    3.6536    0.7219    0.0000 N   0  3  0  0  0  0  0  0  0  0  0  0
    7.9404    0.7219    0.0000 C   0  0  0  0  0  0  0  0  0  0  0  0
    8.6549    0.3094    0.0000 C   0  0  0  0  0  0  0  0  0  0  0  0
    9.3693    0.7219    0.0000 N   0  0  0  0  0  0  0  0  0  0  0  0
    8.6549   -0.5156    0.0000 C   0  0  0  0  0  0  0  0  0  0  0  0
    7.9404   -0.9281    0.0000 C   0  0  0  0  0  0  0  0  0  0  0  0
    0.0000   -4.2281    0.0000 C   0  0  0  0  0  0  0  0  0  0  0  0
    0.7145   -3.8156    0.0000 C   0  0  0  0  0  0  0  0  0  0  0  0
    0.7145   -2.9906    0.0000 C   0  0  0  0  0  0  0  0  0  0  0  0
   -0.0000   -2.5781    0.0000 N   0  0  0  0  0  0  0  0  0  0  0  0
   -0.7145   -2.9906    0.0000 C   0  0  0  0  0  0  0  0  0  0  0  0
   -0.7145   -3.8156    0.0000 C   0  0  0  0  0  0  0  0  0  0  0  0
   -1.4289   -4.2281    0.0000 C   0  0  0  0  0  0  0  0  0  0  0  0
   -2.1434   -3.8156    0.0000 C   0  0  0  0  0  0  0  0  0  0  0  0
   -2.1434   -2.9906    0.0000 C   0  0  0  0  0  0  0  0  0  0  0  0
   -1.4289   -2.5781    0.0000 C   0  0  0  0  0  0  0  0  0  0  0  0
   -2.8579   -2.5781    0.0000 N   0  3  0  0  0  0  0  0  0  0  0  0
    1.4289   -2.5781    0.0000 C   0  0  0  0  0  0  0  0  0  0  0  0
    2.1434   -2.9906    0.0000 C   0  0  0  0  0  0  0  0  0  0  0  0
    2.8579   -2.5781    0.0000 N   0  0  0  0  0  0  0  0  0  0  0  0
    2.1434   -3.8156    0.0000 C   0  0  0  0  0  0  0  0  0  0  0  0
    1.4289   -4.2281    0.0000 C   0  0  0  0  0  0  0  0  0  0  0  0
  1  2  2  0  0  0  0
  2  3  1  0  0  0  0
  2  4  1  0  0  0  0
  2  5  2  0  0  0  0
  6  7  2  0  0  0  0
  7  8  1  0  0  0  0
  8  9  2  0  0  0  0
  9 10  1  0  0  0  0
 10 11  2  0  0  0  0
  6 11  1  0  0  0  0
 11 12  1  0  0  0  0
 12 13  2  0  0  0  0
 13 14  1  0  0  0  0
 14 15  2  0  0  0  0
 10 15  1  0  0  0  0
 14 16  1  0  0  0  0
  8 17  1  0  0  0  0
 17 18  2  0  0  0  0
 18 19  1  0  0  0  0
 18 20  1  0  0  0  0
 20 21  2  0  0  0  0
  7 21  1  0  0  0  0
 22 23  2  0  0  0  0
 23 24  1  0  0  0  0
 24 25  2  0  0  0  0
 25 26  1  0  0  0  0
 26 27  2  0  0  0  0
 22 27  1  0  0  0  0
 27 28  1  0  0  0  0
 28 29  2  0  0  0  0
 29 30  1  0  0  0  0
 30 31  2  0  0  0  0
 26 31  1  0  0  0  0
 30 32  1  0  0  0  0
 24 33  1  0  0  0  0
 33 34  2  0  0  0  0
 34 35  1  0  0  0  0
 34 36  1  0  0  0  0
 36 37  2  0  0  0  0
 23 37  1  0  0  0  0
M  CHG  4   3  -1   4  -1  16   1  32   1
M  END
>  <Name>
Proflavine Hemisulfate

>  <CAS>
1811-28-5

>  <Formula>
C26H24N604S

>  <MolWt>
516.57 

>  <Bioactivity>
Proflavine Hemisulfate is a topical antiseptic by interchelating DNA, thereby disrupting DNA synthesis and leading to high levels of mutation in the copied DNA strands.

>  <Pathways>
Angiogensis; DNA Damage/DNA Repair; Vitamin

>  <Target>
Prothrombin;VB;DNA mutation

>  <Receptor>
Prothrombin;QacR, LfrR;DNA mutation

>  <Reference>
1. Stokowa K, et al. J Inorg Biochem, 2012, 106(1), 111-116.

$$$$
T1305
  Mrv1561503291623562D          

 37 40  0  0  1  0            999 V2000
    0.5635   -0.9760    0.0000 C   0  0  2  0  0  0  0  0  0  0  0  0
    0.5635   -0.1510    0.0000 N   0  0  0  0  0  0  0  0  0  0  0  0
    1.2780    0.2615    0.0000 C   0  0  0  0  0  0  0  0  0  0  0  0
    1.9924   -0.1510    0.0000 C   0  0  0  0  0  0  0  0  0  0  0  0
    2.7069    0.2615    0.0000 C   0  0  0  0  0  0  0  0  0  0  0  0
    3.4214   -0.1510    0.0000 N   0  3  0  0  0  0  0  0  0  0  0  0
    4.1358    0.2615    0.0000 C   0  0  0  0  0  0  0  0  0  0  0  0
    4.8503   -0.1510    0.0000 C   0  0  0  0  0  0  0  0  0  0  0  0
    4.8503   -0.9760    0.0000 C   0  0  0  0  0  0  0  0  0  0  0  0
    4.1358   -1.3885    0.0000 C   0  0  0  0  0  0  0  0  0  0  0  0
    3.4214   -0.9760    0.0000 C   0  0  0  0  0  0  0  0  0  0  0  0
    1.9924   -0.9760    0.0000 C   0  0  0  0  0  0  0  0  0  0  0  0
    1.2780   -1.3885    0.0000 S   0  0  0  0  0  0  0  0  0  0  0  0
    1.2780    1.0865    0.0000 C   0  0  0  0  0  0  0  0  0  0  0  0
    1.9924    1.4990    0.0000 O   0  0  0  0  0  0  0  0  0  0  0  0
    0.5635    1.4990    0.0000 O   0  5  0  0  0  0  0  0  0  0  0  0
   -0.2615   -0.1510    0.0000 C   0  0  0  0  0  0  0  0  0  0  0  0
   -0.8449    0.4324    0.0000 O   0  0  0  0  0  0  0  0  0  0  0  0
   -0.2615   -0.9760    0.0000 C   0  0  1  0  0  0  0  0  0  0  0  0
   -0.8449   -1.5593    0.0000 N   0  0  0  0  0  0  0  0  0  0  0  0
   -1.6418   -1.3458    0.0000 C   0  0  0  0  0  0  0  0  0  0  0  0
   -2.2251   -1.9292    0.0000 C   0  0  0  0  0  0  0  0  0  0  0  0
   -2.0116   -2.7261    0.0000 C   0  0  0  0  0  0  0  0  0  0  0  0
   -1.2414   -3.0217    0.0000 C   0  0  0  0  0  0  0  0  0  0  0  0
   -1.2846   -3.8456    0.0000 S   0  0  0  0  0  0  0  0  0  0  0  0
   -2.0815   -4.0591    0.0000 C   0  0  0  0  0  0  0  0  0  0  0  0
   -2.5308   -3.3672    0.0000 N   0  0  0  0  0  0  0  0  0  0  0  0
   -2.3771   -4.8293    0.0000 N   0  0  0  0  0  0  0  0  0  0  0  0
   -3.0220   -1.7157    0.0000 N   0  0  0  0  0  0  0  0  0  0  0  0
   -3.2355   -0.9188    0.0000 O   0  0  0  0  0  0  0  0  0  0  0  0
   -4.0324   -0.7052    0.0000 C   0  0  0  0  0  0  0  0  0  0  0  0
   -4.8293   -0.4917    0.0000 C   0  0  0  0  0  0  0  0  0  0  0  0
   -5.4127   -1.0751    0.0000 O   0  0  0  0  0  0  0  0  0  0  0  0
   -5.0428    0.3052    0.0000 O   0  0  0  0  0  0  0  0  0  0  0  0
   -3.8189    0.0916    0.0000 C   0  0  0  0  0  0  0  0  0  0  0  0
   -4.2460   -1.5021    0.0000 C   0  0  0  0  0  0  0  0  0  0  0  0
   -1.8553   -0.5489    0.0000 O   0  0  0  0  0  0  0  0  0  0  0  0
  1  2  1  6  0  0  0
  2  3  1  0  0  0  0
  3  4  2  0  0  0  0
  4  5  1  0  0  0  0
  5  6  1  0  0  0  0
  6  7  2  0  0  0  0
  7  8  1  0  0  0  0
  8  9  2  0  0  0  0
  9 10  1  0  0  0  0
 10 11  2  0  0  0  0
  6 11  1  0  0  0  0
  4 12  1  0  0  0  0
 12 13  1  0  0  0  0
  1 13  1  0  0  0  0
  3 14  1  0  0  0  0
 14 15  2  0  0  0  0
 14 16  1  0  0  0  0
  2 17  1  0  0  0  0
 17 18  2  0  0  0  0
 17 19  1  0  0  0  0
  1 19  1  0  0  0  0
 19 20  1  6  0  0  0
 20 21  1  0  0  0  0
 21 22  1  0  0  0  0
 22 23  1  0  0  0  0
 23 24  2  0  0  0  0
 24 25  1  0  0  0  0
 25 26  1  0  0  0  0
 26 27  2  0  0  0  0
 23 27  1  0  0  0  0
 26 28  1  0  0  0  0
 22 29  2  0  0  0  0
 29 30  1  0  0  0  0
 30 31  1  0  0  0  0
 31 32  1  0  0  0  0
 32 33  1  0  0  0  0
 32 34  2  0  0  0  0
 31 35  1  0  0  0  0
 31 36  1  0  0  0  0
 21 37  2  0  0  0  0
M  CHG  2   6   1  16  -1
M  END
>  <Name>
Ceftazidime

>  <CAS>
72558-82-8

>  <Formula>
C22H22N6O7S2

>  <MolWt>
546.57 

>  <Bioactivity>
Semisynthetic, broad-spectrum antibacterial derived from CEPHALORIDINE and used especially for Pseudomonas and other gram-negative infections in debilitated patients. 

>  <Pathways>
Microbiology & Virology

>  <Target>
Antibiotic

>  <Receptor>
Peptidoglycan synthase;PBPs

>  <Reference>
1. Hayes MV, Orr DC. J Antimicrob Chemother. 1983 Aug;12(2):119-26. 

$$$$
T0956
  Mrv1561503291623562D          

123135  0  0  1  0            999 V2000
   -1.2547   -2.8975    0.0000 C   0  0  2  0  0  0  0  0  0  0  0  0
   -1.2198   -3.7218    0.0000 O   0  0  0  0  0  0  0  0  0  0  0  0
   -1.9935   -3.2647    0.0000 C   0  0  2  0  0  0  0  0  0  0  0  0
   -2.5710   -2.6755    0.0000 O   0  0  0  0  0  0  0  0  0  0  0  0
   -2.1891   -1.9442    0.0000 C   0  0  0  0  0  0  0  0  0  0  0  0
   -1.3756   -2.0814    0.0000 C   0  0  0  0  0  0  0  0  0  0  0  0
   -0.7293   -1.5687    0.0000 C   0  0  0  0  0  0  0  0  0  0  0  0
   -0.8502   -0.7526    0.0000 C   0  0  0  0  0  0  0  0  0  0  0  0
   -0.2039   -0.2398    0.0000 C   0  0  0  0  0  0  0  0  0  0  0  0
   -0.3248    0.5763    0.0000 C   0  0  1  0  0  0  0  0  0  0  0  0
    0.3216    1.0890    0.0000 C   0  0  2  0  0  0  0  0  0  0  0  0
    0.2007    1.9051    0.0000 O   0  0  0  0  0  0  0  0  0  0  0  0
   -0.5665    2.2084    0.0000 C   0  0  2  0  0  0  0  0  0  0  0  0
   -1.2129    1.6957    0.0000 O   0  0  0  0  0  0  0  0  0  0  0  0
   -1.9801    1.9991    0.0000 C   0  0  2  0  0  0  0  0  0  0  0  0
   -2.1010    2.8151    0.0000 C   0  0  2  0  0  0  0  0  0  0  0  0
   -2.8682    3.1185    0.0000 O   0  0  0  0  0  0  0  0  0  0  0  0
   -2.9891    3.9346    0.0000 C   0  0  2  0  0  0  0  0  0  0  0  0
   -3.7563    4.2379    0.0000 O   0  0  0  0  0  0  0  0  0  0  0  0
   -3.8772    5.0540    0.0000 C   0  0  2  0  0  0  0  0  0  0  0  0
   -3.2309    5.5668    0.0000 C   0  0  2  0  0  0  0  0  0  0  0  0
   -3.3517    6.3829    0.0000 O   0  0  0  0  0  0  0  0  0  0  0  0
   -2.4636    5.2634    0.0000 C   0  0  1  0  0  0  0  0  0  0  0  0
   -1.8173    5.7762    0.0000 O   0  0  0  0  0  0  0  0  0  0  0  0
   -1.0501    5.4728    0.0000 C   0  0  0  0  0  0  0  0  0  0  0  0
   -2.3427    4.4473    0.0000 C   0  0  0  0  0  0  0  0  0  0  0  0
   -4.6444    5.3574    0.0000 C   0  0  0  0  0  0  0  0  0  0  0  0
   -1.4546    3.3279    0.0000 C   0  0  1  0  0  0  0  0  0  0  0  0
   -1.5755    4.1440    0.0000 O   0  0  0  0  0  0  0  0  0  0  0  0
   -0.9292    4.6567    0.0000 C   0  0  0  0  0  0  0  0  0  0  0  0
   -0.6874    3.0245    0.0000 C   0  0  0  0  0  0  0  0  0  0  0  0
   -2.6264    1.4863    0.0000 C   0  0  0  0  0  0  0  0  0  0  0  0
    1.0888    0.7857    0.0000 C   0  0  0  0  0  0  0  0  0  0  0  0
    1.2097   -0.0304    0.0000 C   0  0  0  0  0  0  0  0  0  0  0  0
    1.9769   -0.3338    0.0000 C   0  0  0  0  0  0  0  0  0  0  0  0
    2.0978   -1.1499    0.0000 C   0  0  1  0  0  0  0  0  0  0  0  0
    2.8650   -1.4532    0.0000 O   0  0  0  0  0  0  0  0  0  0  0  0
    2.9859   -2.2693    0.0000 C   0  0  1  0  0  0  0  0  0  0  0  0
    3.6322   -1.7566    0.0000 O   0  0  0  0  0  0  0  0  0  0  0  0
    4.3994   -2.0599    0.0000 C   0  0  1  0  0  0  0  0  0  0  0  0
    4.5203   -2.8760    0.0000 C   0  0  2  0  0  0  0  0  0  0  0  0
    3.8740   -3.3888    0.0000 C   0  0  0  0  0  0  0  0  0  0  0  0
    3.1068   -3.0854    0.0000 C   0  0  0  0  0  0  0  0  0  0  0  0
    5.2875   -3.1794    0.0000 C   0  0  0  0  0  0  0  0  0  0  0  0
    5.0457   -1.5472    0.0000 C   0  0  0  0  0  0  0  0  0  0  0  0
    5.8129   -1.8505    0.0000 C   0  0  0  0  0  0  0  0  0  0  0  0
    6.4592   -1.3378    0.0000 C   0  0  0  0  0  0  0  0  0  0  0  0
    4.9248   -0.7311    0.0000 C   0  0  0  0  0  0  0  0  0  0  0  0
    2.3396   -2.7821    0.0000 C   0  0  0  0  0  0  0  0  0  0  0  0
    1.5723   -2.4787    0.0000 C   0  0  1  0  0  0  0  0  0  0  0  0
    0.9260   -2.9915    0.0000 O   0  0  0  0  0  0  0  0  0  0  0  0
    0.1588   -2.6881    0.0000 C   0  0  0  0  0  0  0  0  0  0  0  0
    0.0379   -1.8720    0.0000 O   0  0  0  0  0  0  0  0  0  0  0  0
   -0.4875   -3.2009    0.0000 C   0  0  2  0  0  0  0  0  0  0  0  0
   -0.6187   -4.1771    0.0000 C   0  0  0  0  0  0  0  0  0  0  0  0
   -1.3575   -4.5443    0.0000 C   0  0  0  0  0  0  0  0  0  0  0  0
   -2.0449   -4.0881    0.0000 C   0  0  1  0  0  0  0  0  0  0  0  0
   -2.7837   -4.4552    0.0000 O   0  0  0  0  0  0  0  0  0  0  0  0
   -1.4089   -5.3677    0.0000 C   0  0  0  0  0  0  0  0  0  0  0  0
    1.4515   -1.6626    0.0000 C   0  0  0  0  0  0  0  0  0  0  0  0
    1.7351    1.2984    0.0000 C   0  0  0  0  0  0  0  0  0  0  0  0
   -1.0920    0.8796    0.0000 C   0  0  0  0  0  0  0  0  0  0  0  0
   12.2060   -2.9194    0.0000 C   0  0  2  0  0  0  0  0  0  0  0  0
   12.2410   -3.7437    0.0000 O   0  0  0  0  0  0  0  0  0  0  0  0
   11.4672   -3.2866    0.0000 C   0  0  2  0  0  0  0  0  0  0  0  0
   10.8897   -2.6974    0.0000 O   0  0  0  0  0  0  0  0  0  0  0  0
   11.2716   -1.9661    0.0000 C   0  0  0  0  0  0  0  0  0  0  0  0
   12.0851   -2.1033    0.0000 C   0  0  0  0  0  0  0  0  0  0  0  0
   12.7314   -1.5906    0.0000 C   0  0  0  0  0  0  0  0  0  0  0  0
   12.6106   -0.7745    0.0000 C   0  0  0  0  0  0  0  0  0  0  0  0
   13.2569   -0.2618    0.0000 C   0  0  0  0  0  0  0  0  0  0  0  0
   13.1360    0.5543    0.0000 C   0  0  1  0  0  0  0  0  0  0  0  0
   13.7823    1.0671    0.0000 C   0  0  2  0  0  0  0  0  0  0  0  0
   13.6614    1.8832    0.0000 O   0  0  0  0  0  0  0  0  0  0  0  0
   12.8942    2.1865    0.0000 C   0  0  2  0  0  0  0  0  0  0  0  0
   12.2479    1.6738    0.0000 O   0  0  0  0  0  0  0  0  0  0  0  0
   11.4807    1.9771    0.0000 C   0  0  2  0  0  0  0  0  0  0  0  0
   11.3598    2.7932    0.0000 C   0  0  2  0  0  0  0  0  0  0  0  0
   10.5926    3.0966    0.0000 O   0  0  0  0  0  0  0  0  0  0  0  0
   10.4717    3.9127    0.0000 C   0  0  2  0  0  0  0  0  0  0  0  0
    9.7045    4.2160    0.0000 O   0  0  0  0  0  0  0  0  0  0  0  0
    9.5836    5.0321    0.0000 C   0  0  2  0  0  0  0  0  0  0  0  0
   10.2299    5.5448    0.0000 C   0  0  2  0  0  0  0  0  0  0  0  0
   10.1090    6.3609    0.0000 O   0  0  0  0  0  0  0  0  0  0  0  0
   10.9971    5.2415    0.0000 C   0  0  1  0  0  0  0  0  0  0  0  0
   11.6434    5.7542    0.0000 O   0  0  0  0  0  0  0  0  0  0  0  0
   12.4106    5.4509    0.0000 C   0  0  0  0  0  0  0  0  0  0  0  0
   11.1180    4.4254    0.0000 C   0  0  0  0  0  0  0  0  0  0  0  0
    8.8163    5.3354    0.0000 C   0  0  0  0  0  0  0  0  0  0  0  0
   12.0061    3.3060    0.0000 C   0  0  1  0  0  0  0  0  0  0  0  0
   11.8852    4.1221    0.0000 O   0  0  0  0  0  0  0  0  0  0  0  0
   12.5315    4.6348    0.0000 C   0  0  0  0  0  0  0  0  0  0  0  0
   12.7733    3.0026    0.0000 C   0  0  0  0  0  0  0  0  0  0  0  0
   10.8343    1.4644    0.0000 C   0  0  0  0  0  0  0  0  0  0  0  0
   14.5495    0.7637    0.0000 C   0  0  0  0  0  0  0  0  0  0  0  0
   14.6704   -0.0524    0.0000 C   0  0  0  0  0  0  0  0  0  0  0  0
   15.4376   -0.3557    0.0000 C   0  0  0  0  0  0  0  0  0  0  0  0
   15.5585   -1.1718    0.0000 C   0  0  1  0  0  0  0  0  0  0  0  0
   16.3257   -1.4752    0.0000 O   0  0  0  0  0  0  0  0  0  0  0  0
   16.4466   -2.2912    0.0000 C   0  0  1  0  0  0  0  0  0  0  0  0
   17.0929   -1.7785    0.0000 O   0  0  0  0  0  0  0  0  0  0  0  0
   17.8601   -2.0818    0.0000 C   0  0  1  0  0  0  0  0  0  0  0  0
   17.9810   -2.8979    0.0000 C   0  0  2  0  0  0  0  0  0  0  0  0
   17.3347   -3.4107    0.0000 C   0  0  0  0  0  0  0  0  0  0  0  0
   16.5675   -3.1073    0.0000 C   0  0  0  0  0  0  0  0  0  0  0  0
   18.7482   -3.2013    0.0000 C   0  0  0  0  0  0  0  0  0  0  0  0
   18.5064   -1.5691    0.0000 C   0  0  0  0  0  0  0  0  0  0  0  0
   19.2736   -1.8725    0.0000 C   0  0  0  0  0  0  0  0  0  0  0  0
   18.3855   -0.7530    0.0000 C   0  0  0  0  0  0  0  0  0  0  0  0
   15.8003   -2.8040    0.0000 C   0  0  0  0  0  0  0  0  0  0  0  0
   15.0331   -2.5006    0.0000 C   0  0  1  0  0  0  0  0  0  0  0  0
   14.3868   -3.0134    0.0000 O   0  0  0  0  0  0  0  0  0  0  0  0
   13.6195   -2.7100    0.0000 C   0  0  0  0  0  0  0  0  0  0  0  0
   13.4987   -1.8939    0.0000 O   0  0  0  0  0  0  0  0  0  0  0  0
   12.9732   -3.2228    0.0000 C   0  0  2  0  0  0  0  0  0  0  0  0
   12.8420   -4.1991    0.0000 C   0  0  0  0  0  0  0  0  0  0  0  0
   12.1032   -4.5662    0.0000 C   0  0  0  0  0  0  0  0  0  0  0  0
   11.4158   -4.1100    0.0000 C   0  0  1  0  0  0  0  0  0  0  0  0
   10.6770   -4.4772    0.0000 O   0  0  0  0  0  0  0  0  0  0  0  0
   12.0518   -5.3896    0.0000 C   0  0  0  0  0  0  0  0  0  0  0  0
   14.9122   -1.6846    0.0000 C   0  0  0  0  0  0  0  0  0  0  0  0
   15.1958    1.2765    0.0000 C   0  0  0  0  0  0  0  0  0  0  0  0
   12.3688    0.8577    0.0000 C   0  0  0  0  0  0  0  0  0  0  0  0
  1  2  1  6  0  0  0
  1  3  1  0  0  0  0
  3  4  1  1  0  0  0
  4  5  1  0  0  0  0
  5  6  1  0  0  0  0
  1  6  1  0  0  0  0
  6  7  2  0  0  0  0
  7  8  1  4  0  0  0
  8  9  2  0  0  0  0
  9 10  1  0  0  0  0
 10 11  1  0  0  0  0
 11 12  1  6  0  0  0
 13 12  1  6  0  0  0
 13 14  1  0  0  0  0
 14 15  1  0  0  0  0
 15 16  1  0  0  0  0
 16 17  1  6  0  0  0
 18 17  1  6  0  0  0
 18 19  1  0  0  0  0
 19 20  1  0  0  0  0
 20 21  1  0  0  0  0
 21 22  1  6  0  0  0
 21 23  1  0  0  0  0
 23 24  1  1  0  0  0
 24 25  1  0  0  0  0
 23 26  1  0  0  0  0
 18 26  1  0  0  0  0
 20 27  1  1  0  0  0
 16 28  1  0  0  0  0
 28 29  1  1  0  0  0
 29 30  1  0  0  0  0
 28 31  1  0  0  0  0
 13 31  1  0  0  0  0
 15 32  1  1  0  0  0
 11 33  1  0  0  0  0
 33 34  2  0  0  0  0
 34 35  1  0  0  0  0
 35 36  1  0  0  0  0
 36 37  1  0  0  0  0
 38 37  1  1  0  0  0
 38 39  1  0  0  0  0
 39 40  1  0  0  0  0
 40 41  1  0  0  0  0
 41 42  1  0  0  0  0
 42 43  2  0  0  0  0
 38 43  1  0  0  0  0
 41 44  1  1  0  0  0
 40 45  1  6  0  0  0
 45 46  1  0  0  0  0
 46 47  1  0  0  0  0
 45 48  1  0  0  0  0
 38 49  1  0  0  0  0
 49 50  1  0  0  0  0
 50 51  1  0  0  0  0
 51 52  1  0  0  0  0
 52 53  2  0  0  0  0
 52 54  1  0  0  0  0
  1 54  1  0  0  0  0
 54 55  1  6  0  0  0
 55 56  2  0  0  0  0
 56 57  1  0  0  0  0
  3 57  1  0  0  0  0
 57 58  1  1  0  0  0
 56 59  1  0  0  0  0
 50 60  1  1  0  0  0
 36 60  1  1  0  0  0
 33 61  1  0  0  0  0
 10 62  1  6  0  0  0
 63 64  1  6  0  0  0
 63 65  1  0  0  0  0
 65 66  1  1  0  0  0
 66 67  1  0  0  0  0
 67 68  1  0  0  0  0
 63 68  1  0  0  0  0
 68 69  2  0  0  0  0
 69 70  1  0  0  0  0
 70 71  2  0  0  0  0
 71 72  1  0  0  0  0
 72 73  1  0  0  0  0
 73 74  1  6  0  0  0
 75 74  1  6  0  0  0
 75 76  1  0  0  0  0
 76 77  1  0  0  0  0
 77 78  1  0  0  0  0
 78 79  1  6  0  0  0
 80 79  1  6  0  0  0
 80 81  1  0  0  0  0
 81 82  1  0  0  0  0
 82 83  1  0  0  0  0
 83 84  1  6  0  0  0
 83 85  1  0  0  0  0
 85 86  1  1  0  0  0
 86 87  1  0  0  0  0
 85 88  1  0  0  0  0
 80 88  1  0  0  0  0
 82 89  1  1  0  0  0
 78 90  1  0  0  0  0
 90 91  1  1  0  0  0
 91 92  1  0  0  0  0
 90 93  1  0  0  0  0
 75 93  1  0  0  0  0
 77 94  1  1  0  0  0
 73 95  1  0  0  0  0
 95 96  2  0  0  0  0
 96 97  1  0  0  0  0
 97 98  1  0  0  0  0
 98 99  1  0  0  0  0
100 99  1  1  0  0  0
100101  1  0  0  0  0
101102  1  0  0  0  0
102103  1  0  0  0  0
103104  1  0  0  0  0
104105  2  0  0  0  0
100105  1  0  0  0  0
103106  1  1  0  0  0
102107  1  6  0  0  0
107108  1  0  0  0  0
107109  1  0  0  0  0
100110  1  0  0  0  0
110111  1  0  0  0  0
111112  1  0  0  0  0
112113  1  0  0  0  0
113114  2  0  0  0  0
113115  1  0  0  0  0
 63115  1  0  0  0  0
115116  1  6  0  0  0
116117  2  0  0  0  0
117118  1  0  0  0  0
 65118  1  0  0  0  0
118119  1  1  0  0  0
117120  1  0  0  0  0
111121  1  1  0  0  0
 98121  1  1  0  0  0
 95122  1  0  0  0  0
 72123  1  6  0  0  0
M  END
>  <Name>
Abamectin

>  <CAS>
71751-41-2

>  <Formula>
C48H72O14

>  <MolWt>
887.11 

>  <Bioactivity>
Avermectin B1 (Abamectin) is a widely used insecticide and anthelmintic.

>  <Pathways>
Microbiology & Virology

>  <Target>
Antiparasitic

>  <Receptor>
Antiparasitic

>  <Reference>
1. Mogg TD, et al. Aust Vet J. 1990 Nov;67(11):399-401. 

$$$$
T1155
  Mrv1561503291623562D          

 22 24  0  0  0  0            999 V2000
    3.2789    1.2375    0.0000 C   0  0  0  0  0  0  0  0  0  0  0  0
    3.9934    0.8250    0.0000 C   0  0  0  0  0  0  0  0  0  0  0  0
    4.7079    1.2375    0.0000 C   0  0  0  0  0  0  0  0  0  0  0  0
    4.7079    2.0625    0.0000 O   0  0  0  0  0  0  0  0  0  0  0  0
    5.4223    0.8250    0.0000 C   0  0  0  0  0  0  0  0  0  0  0  0
    6.1368    1.2375    0.0000 C   0  0  0  0  0  0  0  0  0  0  0  0
    6.8513    0.8250    0.0000 C   0  0  0  0  0  0  0  0  0  0  0  0
    6.8513    0.0000    0.0000 C   0  0  0  0  0  0  0  0  0  0  0  0
    6.1368   -0.4125    0.0000 C   0  0  0  0  0  0  0  0  0  0  0  0
    5.4223    0.0000    0.0000 C   0  0  0  0  0  0  0  0  0  0  0  0
    3.9934    0.0000    0.0000 C   0  0  0  0  0  0  0  0  0  0  0  0
    3.2789   -0.4125    0.0000 C   0  0  0  0  0  0  0  0  0  0  0  0
    2.5645   -0.0000    0.0000 C   0  0  0  0  0  0  0  0  0  0  0  0
    2.5645    0.8250    0.0000 C   0  0  0  0  0  0  0  0  0  0  0  0
    1.7798    1.0799    0.0000 N   0  0  0  0  0  0  0  0  0  0  0  0
    1.2949    0.4125    0.0000 C   0  0  0  0  0  0  0  0  0  0  0  0
    1.7798   -0.2549    0.0000 N   0  0  0  0  0  0  0  0  0  0  0  0
    0.4699    0.4125    0.0000 N   0  0  0  0  0  0  0  0  0  0  0  0
    0.0574   -0.3020    0.0000 C   0  0  0  0  0  0  0  0  0  0  0  0
   -0.7676   -0.3020    0.0000 O   0  0  0  0  0  0  0  0  0  0  0  0
   -1.1801   -1.0164    0.0000 C   0  0  0  0  0  0  0  0  0  0  0  0
    0.4699   -1.0164    0.0000 O   0  0  0  0  0  0  0  0  0  0  0  0
  1  2  2  0  0  0  0
  2  3  1  0  0  0  0
  3  4  2  0  0  0  0
  3  5  1  0  0  0  0
  5  6  2  0  0  0  0
  6  7  1  0  0  0  0
  7  8  2  0  0  0  0
  8  9  1  0  0  0  0
  9 10  2  0  0  0  0
  5 10  1  0  0  0  0
  2 11  1  0  0  0  0
 11 12  2  0  0  0  0
 12 13  1  0  0  0  0
 13 14  2  0  0  0  0
  1 14  1  0  0  0  0
 14 15  1  0  0  0  0
 15 16  1  0  0  0  0
 16 17  2  0  0  0  0
 13 17  1  0  0  0  0
 16 18  1  0  0  0  0
 18 19  1  0  0  0  0
 19 20  1  0  0  0  0
 20 21  1  0  0  0  0
 19 22  2  0  0  0  0
M  END
>  <Name>
Mebendazole

>  <CAS>
31431-39-7

>  <Formula>
C16H13N3O3

>  <MolWt>
295.30 

>  <Bioactivity>
A benzimidazole that acts by interfering with carbohydrate metabolism and inhibiting polymerization of microtubules. 

>  <Pathways>
Cell Cycle/Checkpoint

>  <Target>
Microtubule Associated inhibitor

>  <Receptor>
Tubulin alpha-1A chain, Tubulin beta-4B chain

>  <Reference>
1. Lubega GW, et al. Mol Biochem Parasitol. 1993 Dec;62(2):281-92. 

$$$$
59263-76-2
  Mrv1561503291623562D          

 19 18  0  0  0  0            999 V2000
    0.4125    0.0000    0.0000 H   0  3  0  0  0  0  0  0  0  0  0  0
    3.7272    1.1725    0.0000 C   0  0  0  0  0  0  0  0  0  0  0  0
    3.7272    0.3475    0.0000 C   0  0  0  0  0  0  0  0  0  0  0  0
    4.4416   -0.0650    0.0000 C   0  0  0  0  0  0  0  0  0  0  0  0
    5.2643   -0.1267    0.0000 C   0  0  0  0  0  0  0  0  0  0  0  0
    5.7291   -0.8083    0.0000 C   0  0  0  0  0  0  0  0  0  0  0  0
    5.4859   -1.5966    0.0000 C   0  0  0  0  0  0  0  0  0  0  0  0
    4.7179   -1.8981    0.0000 C   0  0  0  0  0  0  0  0  0  0  0  0
    4.0034   -1.4856    0.0000 N   0  0  0  0  0  0  0  0  0  0  0  0
    3.8805   -0.6698    0.0000 C   0  0  0  0  0  0  0  0  0  0  0  0
    3.3218   -1.9503    0.0000 C   0  0  0  0  0  0  0  0  0  0  0  0
    4.6848    0.7233    0.0000 C   0  0  0  0  0  0  0  0  0  0  0  0
    5.4891    0.9069    0.0000 C   0  0  0  0  0  0  0  0  0  0  0  0
    3.0127   -0.0650    0.0000 C   0  0  0  0  0  0  0  0  0  0  0  0
    2.2982    0.3475    0.0000 C   0  0  0  0  0  0  0  0  0  0  0  0
    2.2982    1.1725    0.0000 C   0  0  0  0  0  0  0  0  0  0  0  0
    3.0127    1.5850    0.0000 C   0  0  0  0  0  0  0  0  0  0  0  0
    3.0127    2.4100    0.0000 O   0  0  0  0  0  0  0  0  0  0  0  0
   -0.4125    0.0000    0.0000 Cl  0  5  0  0  0  0  0  0  0  0  0  0
  2  3  2  0  0  0  0
  3  4  1  0  0  0  0
  4  5  1  0  0  0  0
  5  6  1  0  0  0  0
  6  7  1  0  0  0  0
  7  8  1  0  0  0  0
  8  9  1  0  0  0  0
  9 10  1  0  0  0  0
  4 10  1  0  0  0  0
  9 11  1  0  0  0  0
  4 12  1  0  0  0  0
 12 13  1  0  0  0  0
  3 14  1  0  0  0  0
 14 15  2  0  0  0  0
 15 16  1  0  0  0  0
 16 17  2  0  0  0  0
  2 17  1  0  0  0  0
 17 18  1  0  0  0  0
M  CHG  2   1   1  19  -1
M  END
>  <Name>
Meptazinol HCl

>  <CAS>
59263-76-2

>  <Formula>
C15H23NO.HCl

>  <MolWt>
269.81 

>  <Bioactivity>
A narcotic antagonist with analgesic properties. It is used for the control of moderate to severe pain.

>  <Pathways>
Neuroscience

>  <Target>
Opioid Receptor

>  <Receptor>
Opioid Receptor

>  <Reference>
1. Spiegel K, et al. J Pharmacol Exp Ther, 1984, 228(2), 414-419.

$$$$
1321-14-8
  Mrv1561503291623562D          

 14 13  0  0  0  0            999 V2000
   -0.0000    0.0000    0.0000 C   0  0  0  0  0  0  0  0  0  0  0  0
   -0.0000    0.8250    0.0000 C   0  0  0  0  0  0  0  0  0  0  0  0
   -0.7145    1.2375    0.0000 S   0  0  0  0  0  0  0  0  0  0  0  0
   -1.4289    1.6500    0.0000 O   0  5  0  0  0  0  0  0  0  0  0  0
   -0.3020    1.9520    0.0000 O   0  0  0  0  0  0  0  0  0  0  0  0
   -1.1270    0.5230    0.0000 O   0  0  0  0  0  0  0  0  0  0  0  0
    0.7145    1.2375    0.0000 C   0  0  0  0  0  0  0  0  0  0  0  0
    1.4289    0.8250    0.0000 C   0  0  0  0  0  0  0  0  0  0  0  0
    1.4289   -0.0000    0.0000 C   0  0  0  0  0  0  0  0  0  0  0  0
    0.7145   -0.4125    0.0000 C   0  0  0  0  0  0  0  0  0  0  0  0
    0.7145    2.0625    0.0000 O   0  0  0  0  0  0  0  0  0  0  0  0
    1.4289    2.4750    0.0000 C   0  0  0  0  0  0  0  0  0  0  0  0
    1.4289    3.3000    0.0000 O   0  0  0  0  0  0  0  0  0  0  0  0
   -2.1434    2.0625    0.0000 K   0  3  0  0  0  0  0  0  0  0  0  0
  1  2  2  0  0  0  0
  2  3  1  0  0  0  0
  3  4  1  0  0  0  0
  3  5  2  0  0  0  0
  3  6  2  0  0  0  0
  2  7  1  0  0  0  0
  7  8  2  0  0  0  0
  8  9  1  0  0  0  0
  9 10  2  0  0  0  0
  1 10  1  0  0  0  0
  7 11  1  0  0  0  0
 11 12  1  0  0  0  0
 12 13  1  0  0  0  0
M  CHG  2   4  -1  14   1
M  END
>  <Name>
Sulfogaiacol

>  <CAS>
1321-14-8

>  <Formula>
C7H7KO5S

>  <MolWt>
242.29 

>  <Bioactivity>
It is an organic compounds with molecular fomular C7H7KO5S.

>  <Pathways>
Others

>  <Target>
Others

>  <Receptor>
Others

>  <Reference>
1. Armand C, et al. Therapie. 2004 Sep-Oct;59(5):547-53.

$$$$
22494-42-4
  Mrv1561503291623562D          

 18 19  0  0  0  0            999 V2000
    1.4289   -2.4750    0.0000 C   0  0  0  0  0  0  0  0  0  0  0  0
    0.7145   -2.8875    0.0000 C   0  0  0  0  0  0  0  0  0  0  0  0
    0.7145   -3.7125    0.0000 C   0  0  0  0  0  0  0  0  0  0  0  0
    1.4289   -4.1250    0.0000 C   0  0  0  0  0  0  0  0  0  0  0  0
    1.4289   -4.9500    0.0000 C   0  0  0  0  0  0  0  0  0  0  0  0
    0.7145   -5.3625    0.0000 C   0  0  0  0  0  0  0  0  0  0  0  0
   -0.0000   -4.9500    0.0000 C   0  0  0  0  0  0  0  0  0  0  0  0
   -0.0000   -4.1250    0.0000 C   0  0  0  0  0  0  0  0  0  0  0  0
   -0.7145   -5.3625    0.0000 C   0  0  0  0  0  0  0  0  0  0  0  0
   -0.7145   -6.1875    0.0000 O   0  0  0  0  0  0  0  0  0  0  0  0
   -1.4289   -4.9500    0.0000 O   0  0  0  0  0  0  0  0  0  0  0  0
    0.7145   -6.1875    0.0000 O   0  0  0  0  0  0  0  0  0  0  0  0
   -0.0000   -2.4750    0.0000 C   0  0  0  0  0  0  0  0  0  0  0  0
   -0.0000   -1.6500    0.0000 C   0  0  0  0  0  0  0  0  0  0  0  0
    0.7145   -1.2375    0.0000 C   0  0  0  0  0  0  0  0  0  0  0  0
    1.4289   -1.6500    0.0000 C   0  0  0  0  0  0  0  0  0  0  0  0
    0.7145   -0.4125    0.0000 F   0  0  0  0  0  0  0  0  0  0  0  0
   -0.7145   -2.8875    0.0000 F   0  0  0  0  0  0  0  0  0  0  0  0
  1  2  2  0  0  0  0
  2  3  1  0  0  0  0
  3  4  2  0  0  0  0
  4  5  1  0  0  0  0
  5  6  2  0  0  0  0
  6  7  1  0  0  0  0
  7  8  2  0  0  0  0
  3  8  1  0  0  0  0
  7  9  1  0  0  0  0
  9 10  1  0  0  0  0
  9 11  2  0  0  0  0
  6 12  1  0  0  0  0
  2 13  1  0  0  0  0
 13 14  2  0  0  0  0
 14 15  1  0  0  0  0
 15 16  2  0  0  0  0
  1 16  1  0  0  0  0
 15 17  1  0  0  0  0
 13 18  1  0  0  0  0
M  END
>  <Name>
Diflunisal

>  <CAS>
22494-42-4

>  <Formula>
C13H8F2O3

>  <MolWt>
250.20 

>  <Bioactivity>
Diflunisal, a salicylate derivative, is a nonsteroidal anti-inflammatory agent (NSAIA) with pharmacologic actions similar to other prototypical NSAIAs. Diflunisal possesses anti-inflammatory, analgesic and antipyretic activity. Though its mechanism of action has not been clearly established, most of its actions appear to be associated with inhibition of prostaglandin synthesis via the arachidonic acid pathway. Diflunisal is used to relieve pain accompanied with inflammation and in the symptomatic treatment of rheumatoid arthritis and osteoarthritis. .

>  <Pathways>
Neuroscience

>  <Target>
COX inhibitor

>  <Receptor>
Prostaglandin G/H synthase

>  <Reference>
1. Jeske AH. J Gt Houst Dent Soc. 1999, 71(4):39-40. 

$$$$
67-48-1
  Mrv1561503291623562D          

  8  6  0  0  0  0            999 V2000
   -0.3536   -0.2041    0.0000 C   0  0  0  0  0  0  0  0  0  0  0  0
    0.4714   -0.2041    0.0000 N   0  3  0  0  0  0  0  0  0  0  0  0
    1.2964   -0.2041    0.0000 C   0  0  0  0  0  0  0  0  0  0  0  0
    0.4714    0.6209    0.0000 C   0  0  0  0  0  0  0  0  0  0  0  0
    0.4714   -1.0291    0.0000 C   0  0  0  0  0  0  0  0  0  0  0  0
   -0.7661    0.5103    0.0000 C   0  0  0  0  0  0  0  0  0  0  0  0
   -1.5911    0.5103    0.0000 O   0  0  0  0  0  0  0  0  0  0  0  0
    3.6536    0.0000    0.0000 Cl  0  5  0  0  0  0  0  0  0  0  0  0
  1  2  1  0  0  0  0
  2  3  1  0  0  0  0
  2  4  1  0  0  0  0
  2  5  1  0  0  0  0
  1  6  1  0  0  0  0
  6  7  1  0  0  0  0
M  CHG  2   2   1   8  -1
M  END
>  <Name>
Choline chloride

>  <CAS>
67-48-1

>  <Formula>
C5H14ClNO

>  <MolWt>
139.63 

>  <Bioactivity>
A basic constituent of lecithin that is found in many plants and animal organs. It is important as a precursor of acetylcholine, as a methyl donor in various metabolic processes, and in lipid metabolism. 

>  <Pathways>
Neuroscience

>  <Target>
AChR agonist

>  <Receptor>
Muscarinic AChR

>  <Reference>
1. Lu XZ, et al. Br J Pharmacol. 2015 May 8

$$$$
T1415
  Mrv1561503291623562D          

 18 18  0  0  0  0            999 V2000
    1.4289    0.8250    0.0000 C   0  0  0  0  0  0  0  0  0  0  0  0
    1.4289    0.0000    0.0000 C   0  0  0  0  0  0  0  0  0  0  0  0
    2.1434   -0.4125    0.0000 C   0  0  0  0  0  0  0  0  0  0  0  0
    0.7145   -0.4125    0.0000 C   0  0  0  0  0  0  0  0  0  0  0  0
   -0.0000    0.0000    0.0000 C   0  0  0  0  0  0  0  0  0  0  0  0
   -0.0000    0.8250    0.0000 C   0  0  0  0  0  0  0  0  0  0  0  0
    0.7145    1.2375    0.0000 C   0  0  0  0  0  0  0  0  0  0  0  0
    0.7145    2.0625    0.0000 O   0  0  0  0  0  0  0  0  0  0  0  0
    0.0000    2.4750    0.0000 C   0  0  0  0  0  0  0  0  0  0  0  0
    0.0000    3.3000    0.0000 C   0  0  0  0  0  0  0  0  0  0  0  0
   -0.7145    3.7125    0.0000 C   0  0  0  0  0  0  0  0  0  0  0  0
   -0.7145    4.5375    0.0000 C   0  0  0  0  0  0  0  0  0  0  0  0
   -0.7145    5.3625    0.0000 C   0  0  0  0  0  0  0  0  0  0  0  0
   -1.4289    5.7750    0.0000 O   0  0  0  0  0  0  0  0  0  0  0  0
    0.0000    5.7750    0.0000 O   0  0  0  0  0  0  0  0  0  0  0  0
    0.1105    4.5375    0.0000 C   0  0  0  0  0  0  0  0  0  0  0  0
   -1.5395    4.5375    0.0000 C   0  0  0  0  0  0  0  0  0  0  0  0
   -0.7145    1.2375    0.0000 C   0  0  0  0  0  0  0  0  0  0  0  0
  1  2  2  0  0  0  0
  2  3  1  0  0  0  0
  2  4  1  0  0  0  0
  4  5  2  0  0  0  0
  5  6  1  0  0  0  0
  6  7  2  0  0  0  0
  1  7  1  0  0  0  0
  7  8  1  0  0  0  0
  8  9  1  0  0  0  0
  9 10  1  0  0  0  0
 10 11  1  0  0  0  0
 11 12  1  0  0  0  0
 12 13  1  0  0  0  0
 13 14  1  0  0  0  0
 13 15  2  0  0  0  0
 12 16  1  0  0  0  0
 12 17  1  0  0  0  0
  6 18  1  0  0  0  0
M  END
>  <Name>
Gemfibrozil

>  <CAS>
25812-30-0

>  <Formula>
C15H22O3

>  <MolWt>
250.33 

>  <Bioactivity>
Gemfibrozil (Lopid) is an oral drug used to lower lipid levels. It belongs to a group of drugs known as fibrates. Increases activity of Peroxisome proliferator-activated receptor-alpha (PPAR?) 'transcription factor ligand' , a receptor that is involved in metabolism of carbohydrates and fats, as well as adipose tissue differentiation. This increase in the synthesis of lipoprotein lipase thereby increases the clearance of triglycerides.

>  <Pathways>
Metabolism

>  <Target>
PPAR agonist

>  <Receptor>
PPAR?

>  <Reference>
1. Clavey V, et al. Cell Physiol Biochem. 1999;9(3):139-49. 

$$$$
T0134
  Mrv1561503291623562D          

 18 20  0  0  0  0            999 V2000
    1.8189   -1.5520    0.0000 C   0  0  0  0  0  0  0  0  0  0  0  0
    0.9943   -1.5262    0.0000 C   0  0  0  0  0  0  0  0  0  0  0  0
    0.6043   -0.7992    0.0000 C   0  0  0  0  0  0  0  0  0  0  0  0
    1.0390   -0.0980    0.0000 C   0  0  0  0  0  0  0  0  0  0  0  0
    1.8636   -0.1238    0.0000 C   0  0  0  0  0  0  0  0  0  0  0  0
    2.2982    0.5775    0.0000 N   0  0  0  0  0  0  0  0  0  0  0  0
    3.1228    0.5517    0.0000 C   0  0  0  0  0  0  0  0  0  0  0  0
    3.5127   -0.1753    0.0000 C   0  0  0  0  0  0  0  0  0  0  0  0
    3.0781   -0.8765    0.0000 C   0  0  0  0  0  0  0  0  0  0  0  0
    2.2535   -0.8508    0.0000 C   0  0  0  0  0  0  0  0  0  0  0  0
    3.6108   -1.5066    0.0000 N   0  0  0  0  0  0  0  0  0  0  0  0
    4.3745   -1.1947    0.0000 C   0  0  0  0  0  0  0  0  0  0  0  0
    4.3140   -0.3719    0.0000 N   0  0  0  0  0  0  0  0  0  0  0  0
    3.4141   -2.3078    0.0000 C   0  0  0  0  0  0  0  0  0  0  0  0
    2.6219   -2.5381    0.0000 C   0  0  0  0  0  0  0  0  0  0  0  0
    2.4253   -3.3393    0.0000 C   0  0  0  0  0  0  0  0  0  0  0  0
    2.0264   -1.9672    0.0000 C   0  0  0  0  0  0  0  0  0  0  0  0
    3.5574    1.2530    0.0000 N   0  0  0  0  0  0  0  0  0  0  0  0
  1  2  2  0  0  0  0
  2  3  1  0  0  0  0
  3  4  2  0  0  0  0
  4  5  1  0  0  0  0
  5  6  2  0  0  0  0
  6  7  1  0  0  0  0
  7  8  2  0  0  0  0
  8  9  1  0  0  0  0
  9 10  2  0  0  0  0
  1 10  1  0  0  0  0
  5 10  1  0  0  0  0
  9 11  1  0  0  0  0
 11 12  1  0  0  0  0
 12 13  2  0  0  0  0
  8 13  1  0  0  0  0
 11 14  1  0  0  0  0
 14 15  1  0  0  0  0
 15 16  1  0  0  0  0
 15 17  1  0  0  0  0
  7 18  1  0  0  0  0
M  END
>  <Name>
Imiquimod

>  <CAS>
99011-02-6

>  <Formula>
C14H16N4

>  <MolWt>
240.31 

>  <Bioactivity>
Imiquimod is an immune response modifier that acts as a toll-like receptor 7 agonist. Imiquimod is commonly used topically to treat warts on the skin of the genital and anal areas. Imiquimod does not cure warts, and new warts may appear during treatment. Imiquimod does not fight the viruses that cause warts directly, however, it does help to relieve and control wart production. Miquimod is also used to treat a skin condition of the face and scalp called actinic keratoses and certain types of skin cancer called superficial basal cell carcinoma.  

>  <Pathways>
Immunology/Inflammation

>  <Target>
TLR agonist

>  <Receptor>
TLR-7, 8

>  <Reference>
1. Gibson SJ, et al. Cell Immunol. 2002 Jul-Aug;218(1-2):74-86. 

$$$$
T1529
  Mrv1561503291623562D          

 14 14  0  0  1  0            999 V2000
    0.7145    1.2375    0.0000 C   0  0  1  0  0  0  0  0  0  0  0  0
    1.4289    0.8250    0.0000 N   0  0  0  0  0  0  0  0  0  0  0  0
    1.4289    0.0000    0.0000 C   0  0  0  0  0  0  0  0  0  0  0  0
    0.7145   -0.4125    0.0000 C   0  0  2  0  0  0  0  0  0  0  0  0
    0.7145   -1.2375    0.0000 O   0  0  0  0  0  0  0  0  0  0  0  0
    0.0000   -0.0000    0.0000 C   0  0  2  0  0  0  0  0  0  0  0  0
    0.0000    0.8250    0.0000 C   0  0  2  0  0  0  0  0  0  0  0  0
   -0.7145    1.2375    0.0000 O   0  0  0  0  0  0  0  0  0  0  0  0
   -0.7145   -0.4125    0.0000 O   0  0  0  0  0  0  0  0  0  0  0  0
    2.1434    1.2375    0.0000 C   0  0  0  0  0  0  0  0  0  0  0  0
    2.8579    0.8250    0.0000 C   0  0  0  0  0  0  0  0  0  0  0  0
    3.5724    1.2375    0.0000 O   0  0  0  0  0  0  0  0  0  0  0  0
    0.7145    2.0625    0.0000 C   0  0  0  0  0  0  0  0  0  0  0  0
   -0.0000    2.4750    0.0000 O   0  0  0  0  0  0  0  0  0  0  0  0
  1  2  1  0  0  0  0
  2  3  1  0  0  0  0
  3  4  1  0  0  0  0
  4  5  1  6  0  0  0
  4  6  1  0  0  0  0
  6  7  1  0  0  0  0
  1  7  1  0  0  0  0
  7  8  1  6  0  0  0
  6  9  1  1  0  0  0
  2 10  1  0  0  0  0
 10 11  1  0  0  0  0
 11 12  1  0  0  0  0
  1 13  1  1  0  0  0
 13 14  1  0  0  0  0
M  END
>  <Name>
Miglitol

>  <CAS>
72432-03-2

>  <Formula>
C8H17NO5

>  <MolWt>
207.22 

>  <Bioactivity>
Miglitol is an oral anti-diabetic drug that acts by inhibiting the ability of the patient to breakdown complex carbohydrates into glucose. It is primarily used in diabetes mellitus type 2 for establishing greater glycemic control by preventing the digestion of carbohydrates (such as disaccharides, oligosaccharides, and polysaccharides) into monosaccharides which can be absorbed by the body. Miglitol inhibits glycoside hydrolase enzymes called alpha-glucosidases. Since miglitol works by preventing digestion of carbohydrates, it lowers the degree of postprandial hyperglycemia. It must be taken at the start of main meals to have maximal effect. Its effect will depend on the amount of non-monosaccharide carbohydrates in a person's diet. In contrast to acarbose (another alpha-glucosidase inhibitor), miglitol is systemically absorbed; however, it is not metabolized and is excreted by the kidneys. 

>  <Pathways>
Metabolism

>  <Target>
MGA inhibitor; GAA antagonist

>  <Receptor>
MGA;GAA

>  <Reference>
1. Rossi EJ, et al. FEBS J. 2006 Jun;273(12):2673-83.

$$$$
85650-56-2
  Mrv1561503291623562D          

 28 30  0  0  1  0            999 V2000
    0.5679    0.6034    0.0000 C   0  0  1  0  0  0  0  0  0  0  0  0
    1.0823   -0.0416    0.0000 C   0  0  0  0  0  0  0  0  0  0  0  0
    0.8987   -0.8459    0.0000 C   0  0  0  0  0  0  0  0  0  0  0  0
    0.1554   -1.2039    0.0000 O   0  0  0  0  0  0  0  0  0  0  0  0
   -0.5879   -0.8459    0.0000 C   0  0  0  0  0  0  0  0  0  0  0  0
   -0.7715   -0.0416    0.0000 C   0  0  0  0  0  0  0  0  0  0  0  0
   -1.5598    0.2015    0.0000 C   0  0  0  0  0  0  0  0  0  0  0  0
   -2.1646   -0.3596    0.0000 C   0  0  0  0  0  0  0  0  0  0  0  0
   -1.9810   -1.1639    0.0000 C   0  0  0  0  0  0  0  0  0  0  0  0
   -1.1927   -1.4071    0.0000 C   0  0  0  0  0  0  0  0  0  0  0  0
   -2.9529   -0.1164    0.0000 Cl  0  0  0  0  0  0  0  0  0  0  0  0
   -0.2571    0.6034    0.0000 C   0  0  2  0  0  0  0  0  0  0  0  0
   -0.5120    1.3880    0.0000 C   0  0  0  0  0  0  0  0  0  0  0  0
    0.1554    1.8729    0.0000 N   0  0  0  0  0  0  0  0  0  0  0  0
    0.8229    1.3880    0.0000 C   0  0  0  0  0  0  0  0  0  0  0  0
    0.1554    2.6979    0.0000 C   0  0  0  0  0  0  0  0  0  0  0  0
    1.5035   -1.4071    0.0000 C   0  0  0  0  0  0  0  0  0  0  0  0
    2.2918   -1.1639    0.0000 C   0  0  0  0  0  0  0  0  0  0  0  0
    2.4754   -0.3596    0.0000 C   0  0  0  0  0  0  0  0  0  0  0  0
    1.8706    0.2015    0.0000 C   0  0  0  0  0  0  0  0  0  0  0  0
    7.5433   -0.0000    0.0000 O   0  0  0  0  0  0  0  0  0  0  0  0
    6.7183    0.0000    0.0000 C   0  0  0  0  0  0  0  0  0  0  0  0
    6.3058    0.7145    0.0000 C   0  0  0  0  0  0  0  0  0  0  0  0
    5.4808    0.7145    0.0000 C   0  0  0  0  0  0  0  0  0  0  0  0
    5.0683    0.0000    0.0000 C   0  0  0  0  0  0  0  0  0  0  0  0
    5.4808   -0.7145    0.0000 O   0  0  0  0  0  0  0  0  0  0  0  0
    4.2433    0.0000    0.0000 O   0  0  0  0  0  0  0  0  0  0  0  0
    6.3058   -0.7145    0.0000 O   0  0  0  0  0  0  0  0  0  0  0  0
  1  2  1  0  0  0  0
  2  3  2  0  0  0  0
  3  4  1  0  0  0  0
  4  5  1  0  0  0  0
  5  6  2  0  0  0  0
  6  7  1  0  0  0  0
  7  8  2  0  0  0  0
  8  9  1  0  0  0  0
  9 10  2  0  0  0  0
  5 10  1  0  0  0  0
  8 11  1  0  0  0  0
  6 12  1  0  0  0  0
  1 12  1  0  0  0  0
 12 13  1  6  0  0  0
 13 14  1  0  0  0  0
 14 15  1  0  0  0  0
  1 15  1  1  0  0  0
 14 16  1  0  0  0  0
  3 17  1  0  0  0  0
 17 18  2  0  0  0  0
 18 19  1  0  0  0  0
 19 20  2  0  0  0  0
  2 20  1  0  0  0  0
 21 22  2  0  0  0  0
 22 23  1  0  0  0  0
 23 24  2  0  0  0  0
 24 25  1  0  0  0  0
 25 26  1  0  0  0  0
 25 27  2  0  0  0  0
 22 28  1  0  0  0  0
M  END
>  <Name>
Asenapine Maleate

>  <CAS>
85650-56-2

>  <Formula>
C21H20ClNO5

>  <MolWt>
401.84 

>  <Bioactivity>
Developed by Schering-Plough after its merger with Organon International, asenapine is a sublingually administered, atypical antipsychotic for treatment of schizophrenia and acute mania associated with bipolar disorder. Asenapine also belongs to the dibenzo-oxepino pyrrole class. It is also for severe post-traumatic stress disorder nightmares in soldiers as an off-label use. FDA approved on August 13, 2009.

>  <Pathways>
Neuroscience 

>  <Target>
5-HT receptor antagonist;Adrenergic Receptor antagonist

>  <Receptor>
5-HT Receptor;Adrenergic receptor ;Dopamine receptor;Histamine recepto

>  <Reference>
1. Shahid M, et al. J Psychopharmacol. 2009 Jan;23(1):65-73. 

$$$$
6899-04-3
  Mrv1561503291623562D          

 10  9  0  0  0  0            999 V2000
    3.9039    1.4289    0.0000 C   0  0  0  0  0  0  0  0  0  0  0  0
    3.1895    1.8414    0.0000 C   0  0  0  0  0  0  0  0  0  0  0  0
    2.4750    1.4289    0.0000 C   0  0  0  0  0  0  0  0  0  0  0  0
    1.7605    1.8414    0.0000 O   0  0  0  0  0  0  0  0  0  0  0  0
    2.4750    0.6039    0.0000 O   0  0  0  0  0  0  0  0  0  0  0  0
    3.1895    2.6664    0.0000 N   0  0  0  0  0  0  0  0  0  0  0  0
    4.6184    1.8414    0.0000 C   0  0  0  0  0  0  0  0  0  0  0  0
    5.3329    1.4289    0.0000 C   0  0  0  0  0  0  0  0  0  0  0  0
    6.0474    1.8414    0.0000 N   0  0  0  0  0  0  0  0  0  0  0  0
    5.3329    0.6039    0.0000 O   0  0  0  0  0  0  0  0  0  0  0  0
  1  2  1  0  0  0  0
  2  3  1  0  0  0  0
  3  4  1  0  0  0  0
  3  5  2  0  0  0  0
  2  6  1  0  0  0  0
  1  7  1  0  0  0  0
  7  8  1  0  0  0  0
  8  9  1  0  0  0  0
  8 10  2  0  0  0  0
M  END
>  <Name>
DL-Glutamine

>  <CAS>
6899-04-3

>  <Formula>
C5H10N2O3

>  <MolWt>
146.15 

>  <Bioactivity>
A non-essential amino acid present abundantly throughout the body and is involved in many metabolic processes. It is synthesized from glutamic acid and ammonia. It is the principal carrier of nitrogen in the body and is an important energy source for many cells. 

>  <Pathways>
Amino Acids & Building Blocks

>  <Target>
Amino Acids and Derivatives

>  <Receptor>
Amino Acids and Derivatives

>  <Reference>
1. Mong JA, Blutstein T. Neuroscience. 2006; 138(3):967-75. 

$$$$
50-42-0
  Mrv1561503291623562D          

 25 24  0  0  0  0            999 V2000
    0.4125    0.0000    0.0000 H   0  3  0  0  0  0  0  0  0  0  0  0
    3.1083   -0.6846    0.0000 C   0  0  0  0  0  0  0  0  0  0  0  0
    3.9185   -0.5287    0.0000 C   0  0  0  0  0  0  0  0  0  0  0  0
    4.1885    0.2508    0.0000 C   0  0  0  0  0  0  0  0  0  0  0  0
    3.6484    0.8745    0.0000 C   0  0  0  0  0  0  0  0  0  0  0  0
    2.8383    0.7185    0.0000 C   0  0  0  0  0  0  0  0  0  0  0  0
    2.2982    1.3422    0.0000 C   0  0  0  0  0  0  0  0  0  0  0  0
    2.5683    2.1217    0.0000 C   0  0  0  0  0  0  0  0  0  0  0  0
    3.3784    2.2776    0.0000 C   0  0  0  0  0  0  0  0  0  0  0  0
    3.9185    1.6540    0.0000 C   0  0  0  0  0  0  0  0  0  0  0  0
    4.9987    0.4067    0.0000 C   0  0  0  0  0  0  0  0  0  0  0  0
    5.5387   -0.2169    0.0000 O   0  0  0  0  0  0  0  0  0  0  0  0
    6.3489   -0.0610    0.0000 C   0  0  0  0  0  0  0  0  0  0  0  0
    6.8890   -0.6846    0.0000 C   0  0  0  0  0  0  0  0  0  0  0  0
    7.6991   -0.5287    0.0000 N   0  0  0  0  0  0  0  0  0  0  0  0
    8.2392   -1.1524    0.0000 C   0  0  0  0  0  0  0  0  0  0  0  0
    9.0493   -0.9965    0.0000 C   0  0  0  0  0  0  0  0  0  0  0  0
    7.9692    0.2508    0.0000 C   0  0  0  0  0  0  0  0  0  0  0  0
    8.7793    0.4067    0.0000 C   0  0  0  0  0  0  0  0  0  0  0  0
    5.2687    1.1863    0.0000 O   0  0  0  0  0  0  0  0  0  0  0  0
    4.4586   -1.1524    0.0000 C   0  0  0  0  0  0  0  0  0  0  0  0
    4.1885   -1.9319    0.0000 C   0  0  0  0  0  0  0  0  0  0  0  0
    3.3784   -2.0878    0.0000 C   0  0  0  0  0  0  0  0  0  0  0  0
    2.8383   -1.4642    0.0000 C   0  0  0  0  0  0  0  0  0  0  0  0
   -0.4125    0.0000    0.0000 Cl  0  5  0  0  0  0  0  0  0  0  0  0
  2  3  2  0  0  0  0
  3  4  1  0  0  0  0
  4  5  1  0  0  0  0
  5  6  2  0  0  0  0
  6  7  1  0  0  0  0
  7  8  2  0  0  0  0
  8  9  1  0  0  0  0
  9 10  2  0  0  0  0
  5 10  1  0  0  0  0
  4 11  1  0  0  0  0
 11 12  1  0  0  0  0
 12 13  1  0  0  0  0
 13 14  1  0  0  0  0
 14 15  1  0  0  0  0
 15 16  1  0  0  0  0
 16 17  1  0  0  0  0
 15 18  1  0  0  0  0
 18 19  1  0  0  0  0
 11 20  2  0  0  0  0
  3 21  1  0  0  0  0
 21 22  2  0  0  0  0
 22 23  1  0  0  0  0
 23 24  2  0  0  0  0
  2 24  1  0  0  0  0
M  CHG  2   1   1  25  -1
M  END
>  <Name>
Adiphenine HCl

>  <CAS>
50-42-0

>  <Formula>
C20H25NO2.HCl

>  <MolWt>
347.88 

>  <Bioactivity>
Adiphenine HCl is a nicotinic receptor inhibitor, used as an antispasmodic drug.

>  <Pathways>
Neuroscience

>  <Target>
AChR antagonist

>  <Receptor>
Nicotinic Receptor

>  <Reference>
1. Spitzmaul G, et al. Br J Pharmacol. 2009 Jul;157(5):804-17. 

$$$$
T0146
  Mrv1561503291623562D          

 23 25  0  0  0  0            999 V2000
   -1.4289    0.8250    0.0000 C   0  0  0  0  0  0  0  0  0  0  0  0
   -1.4289    0.0000    0.0000 C   0  0  0  0  0  0  0  0  0  0  0  0
   -0.7145   -0.4125    0.0000 C   0  0  0  0  0  0  0  0  0  0  0  0
   -0.7145   -1.2375    0.0000 C   0  0  0  0  0  0  0  0  0  0  0  0
    0.0000   -1.6500    0.0000 N   0  0  0  0  0  0  0  0  0  0  0  0
    0.0862   -2.4705    0.0000 C   0  0  0  0  0  0  0  0  0  0  0  0
    0.8932   -2.6420    0.0000 C   0  0  0  0  0  0  0  0  0  0  0  0
    1.3057   -1.9275    0.0000 N   0  0  0  0  0  0  0  0  0  0  0  0
    0.7537   -1.3144    0.0000 C   0  0  0  0  0  0  0  0  0  0  0  0
    0.0000    0.0000    0.0000 O   0  0  0  0  0  0  0  0  0  0  0  0
    0.7145   -0.4125    0.0000 C   0  0  0  0  0  0  0  0  0  0  0  0
    1.4289    0.0000    0.0000 C   0  0  0  0  0  0  0  0  0  0  0  0
    1.5152    0.8205    0.0000 C   0  0  0  0  0  0  0  0  0  0  0  0
    2.3221    0.9920    0.0000 S   0  0  0  0  0  0  0  0  0  0  0  0
    2.7346    0.2775    0.0000 C   0  0  0  0  0  0  0  0  0  0  0  0
    2.1826   -0.3356    0.0000 C   0  0  0  0  0  0  0  0  0  0  0  0
    0.9021    1.3725    0.0000 Cl  0  0  0  0  0  0  0  0  0  0  0  0
   -2.1434   -0.4125    0.0000 C   0  0  0  0  0  0  0  0  0  0  0  0
   -2.8579    0.0000    0.0000 C   0  0  0  0  0  0  0  0  0  0  0  0
   -2.8579    0.8250    0.0000 C   0  0  0  0  0  0  0  0  0  0  0  0
   -2.1434    1.2375    0.0000 C   0  0  0  0  0  0  0  0  0  0  0  0
   -3.5724    1.2375    0.0000 Cl  0  0  0  0  0  0  0  0  0  0  0  0
   -2.1434   -1.2375    0.0000 Cl  0  0  0  0  0  0  0  0  0  0  0  0
  1  2  2  0  0  0  0
  2  3  1  0  0  0  0
  3  4  1  0  0  0  0
  4  5  1  0  0  0  0
  5  6  1  0  0  0  0
  6  7  2  0  0  0  0
  7  8  1  0  0  0  0
  8  9  2  0  0  0  0
  5  9  1  0  0  0  0
  3 10  1  0  0  0  0
 10 11  1  0  0  0  0
 11 12  1  0  0  0  0
 12 13  2  0  0  0  0
 13 14  1  0  0  0  0
 14 15  1  0  0  0  0
 15 16  2  0  0  0  0
 12 16  1  0  0  0  0
 13 17  1  0  0  0  0
  2 18  1  0  0  0  0
 18 19  2  0  0  0  0
 19 20  1  0  0  0  0
 20 21  2  0  0  0  0
  1 21  1  0  0  0  0
 20 22  1  0  0  0  0
 18 23  1  0  0  0  0
M  END
>  <Name>
Vagistat

>  <CAS>
65899-73-2

>  <Formula>
C16H13Cl3N2OS

>  <MolWt>
387.71 

>  <Bioactivity>
Tioconazole is an antifungal medication of the Imidazole class used to treat infections caused by a fungus or yeast. Tioconazole topical (skin) preparations are also available for ringworm, jock itch, athlete's foot, and tinea versicolor or "sun fungus". Tioconazole interacts with 14-alpha demethylase, a cytochrome P-450 enzyme that converts lanosterol to ergosterol, an essential component of the yeast membrane. In this way, tioconazole inhibits ergosterol synthesis, resulting in increased cellular permeability. 

>  <Pathways>
Microbiology & Virology

>  <Target>
Antibiotic

>  <Receptor>
14-? Demethylase

>  <Reference>
1. Ballard SA, et al. Biochem Pharmacol. 1988 Dec 15;37(24):4643-51.

$$$$
T0187
  Mrv1561503291623562D          

 25 24  0  0  1  0            999 V2000
    2.7647    0.6636    0.0000 C   0  0  0  0  0  0  0  0  0  0  0  0
    3.4792    0.2511    0.0000 O   0  0  0  0  0  0  0  0  0  0  0  0
    3.4792   -0.5739    0.0000 C   0  0  0  0  0  0  0  0  0  0  0  0
    2.7647   -0.9864    0.0000 C   0  0  0  0  0  0  0  0  0  0  0  0
    2.0502   -0.5739    0.0000 N   0  0  0  0  0  0  0  0  0  0  0  0
    1.3358   -0.9864    0.0000 C   0  0  0  0  0  0  0  0  0  0  0  0
    0.6213   -0.5739    0.0000 C   0  0  0  0  0  0  0  0  0  0  0  0
   -0.0932   -0.9864    0.0000 C   0  0  0  0  0  0  0  0  0  0  0  0
   -0.8077   -0.5739    0.0000 C   0  0  0  0  0  0  0  0  0  0  0  0
   -1.5221   -0.9864    0.0000 C   0  0  0  0  0  0  0  0  0  0  0  0
   -2.2366   -0.5739    0.0000 C   0  0  0  0  0  0  0  0  0  0  0  0
   -2.2366    0.2511    0.0000 C   0  0  0  0  0  0  0  0  0  0  0  0
   -2.9511    0.6636    0.0000 C   0  0  0  0  0  0  0  0  0  0  0  0
   -3.6655    1.0761    0.0000 C   0  0  0  0  0  0  0  0  0  0  0  0
   -4.3800    0.6636    0.0000 C   0  0  0  0  0  0  0  0  0  0  0  0
   -2.5386    1.3781    0.0000 C   0  0  0  0  0  0  0  0  0  0  0  0
   -3.3636   -0.0509    0.0000 C   0  0  0  0  0  0  0  0  0  0  0  0
   -1.5221    0.6636    0.0000 C   0  0  0  0  0  0  0  0  0  0  0  0
   -0.8077    0.2511    0.0000 C   0  0  0  0  0  0  0  0  0  0  0  0
    0.6213    0.2511    0.0000 C   0  0  0  0  0  0  0  0  0  0  0  0
    2.0502    0.2511    0.0000 C   0  0  0  0  0  0  0  0  0  0  0  0
    4.1936   -0.9864    0.0000 C   0  0  0  0  0  0  0  0  0  0  0  0
    2.7647    1.4886    0.0000 C   0  0  0  0  0  0  0  0  0  0  0  0
    7.3758    0.0000    0.0000 H   0  3  0  0  0  0  0  0  0  0  0  0
    6.5508    0.0000    0.0000 Cl  0  5  0  0  0  0  0  0  0  0  0  0
  1  2  1  0  0  0  0
  2  3  1  0  0  0  0
  3  4  1  0  0  0  0
  4  5  1  0  0  0  0
  5  6  1  0  0  0  0
  6  7  1  0  0  0  0
  7  8  1  0  0  0  0
  8  9  1  0  0  0  0
  9 10  2  0  0  0  0
 10 11  1  0  0  0  0
 11 12  2  0  0  0  0
 12 13  1  0  0  0  0
 13 14  1  0  0  0  0
 14 15  1  0  0  0  0
 13 16  1  0  0  0  0
 13 17  1  0  0  0  0
 12 18  1  0  0  0  0
 18 19  2  0  0  0  0
  9 19  1  0  0  0  0
  7 20  1  0  0  0  0
  5 21  1  0  0  0  0
  1 21  1  0  0  0  0
  3 22  1  0  0  0  0
  1 23  1  0  0  0  0
M  CHG  2  24   1  25  -1
M  END
>  <Name>
Amorolfine HCl

>  <CAS>
78613-38-4

>  <Formula>
C21H36ClNO

>  <MolWt>
353.97 

>  <Bioactivity>
Amorolfine Hydrochloride is an antifungal reagent. It exerts the antifungal activity by selectively blocking two steps in the pathway of ergosterol synthesis, and eventually damaging the structure and function of fungal cell membrane. Amorolfine (or amorolfin), is a morpholine antifungal drug that inhibits D14 reductase and D7-D8 isomerase, which depletes ergosterol and causes ignosterol to accumulate in the fungal cytoplasmic cell membranes

>  <Pathways>
Microbiology & Virology

>  <Target>
Antibiotic

>  <Receptor>
Others

>  <Reference>
1. Espinel-Ingroff A, et al. Antimicrob Agents Chemother. 1984 Jul; 26(1):5-9.

$$$$
112-38-9
  Mrv1561503291623562D          

 13 12  0  0  0  0            999 V2000
    7.8079    2.8579    0.0000 C   0  0  0  0  0  0  0  0  0  0  0  0
    7.0934    3.2704    0.0000 C   0  0  0  0  0  0  0  0  0  0  0  0
    6.3789    2.8579    0.0000 C   0  0  0  0  0  0  0  0  0  0  0  0
    5.6645    3.2704    0.0000 C   0  0  0  0  0  0  0  0  0  0  0  0
    4.9500    2.8579    0.0000 C   0  0  0  0  0  0  0  0  0  0  0  0
    4.2355    3.2704    0.0000 C   0  0  0  0  0  0  0  0  0  0  0  0
    3.5211    2.8579    0.0000 O   0  0  0  0  0  0  0  0  0  0  0  0
    4.2355    4.0954    0.0000 O   0  0  0  0  0  0  0  0  0  0  0  0
    8.5224    3.2704    0.0000 C   0  0  0  0  0  0  0  0  0  0  0  0
    9.2368    2.8579    0.0000 C   0  0  0  0  0  0  0  0  0  0  0  0
    9.9513    3.2704    0.0000 C   0  0  0  0  0  0  0  0  0  0  0  0
   10.6658    2.8579    0.0000 C   0  0  0  0  0  0  0  0  0  0  0  0
   11.3802    3.2704    0.0000 C   0  0  0  0  0  0  0  0  0  0  0  0
  1  2  1  0  0  0  0
  2  3  1  0  0  0  0
  3  4  1  0  0  0  0
  4  5  1  0  0  0  0
  5  6  1  0  0  0  0
  6  7  1  0  0  0  0
  6  8  2  0  0  0  0
  1  9  1  0  0  0  0
  9 10  1  0  0  0  0
 10 11  1  0  0  0  0
 11 12  1  0  0  0  0
 12 13  2  0  0  0  0
M  END
>  <Name>
Undecenoic acid

>  <CAS>
112-38-9

>  <Formula>
C11H20O2

>  <MolWt>
184.28 

>  <Bioactivity>
Undecylenic acid is an organic unsaturated fatty acid pyrolysis product of ricinoleic acid from castor oil.  It is used in the manufacture of pharmaceuticals, cosmetics and perfumery, including antidandruff shampoos, antimicrobial powders and as a musk in perfumes and aromas.

>  <Pathways>
Others

>  <Target>
Others

>  <Receptor>
Others

>  <Reference>
1. EREAUX LP, CRAIG GE. Can Med Assoc J. 1949 Oct;61(4):361-4.

$$$$
92-31-9
  Mrv1561503291623562D          

 20 21  0  0  0  0            999 V2000
   -0.1880   -0.6730    0.0000 S   0  3  0  0  0  0  0  0  0  0  0  0
    0.5265   -0.2605    0.0000 C   0  0  0  0  0  0  0  0  0  0  0  0
    0.5265    0.5645    0.0000 C   0  0  0  0  0  0  0  0  0  0  0  0
   -0.1880    0.9770    0.0000 N   0  0  0  0  0  0  0  0  0  0  0  0
   -0.9025    0.5645    0.0000 C   0  0  0  0  0  0  0  0  0  0  0  0
   -0.9025   -0.2605    0.0000 C   0  0  0  0  0  0  0  0  0  0  0  0
   -1.6170   -0.6730    0.0000 C   0  0  0  0  0  0  0  0  0  0  0  0
   -2.3314   -0.2605    0.0000 C   0  0  0  0  0  0  0  0  0  0  0  0
   -3.0459   -0.6730    0.0000 N   0  0  0  0  0  0  0  0  0  0  0  0
   -2.3314    0.5645    0.0000 C   0  0  0  0  0  0  0  0  0  0  0  0
   -1.6170    0.9770    0.0000 C   0  0  0  0  0  0  0  0  0  0  0  0
   -3.0459    0.9770    0.0000 C   0  0  0  0  0  0  0  0  0  0  0  0
    1.2409    0.9770    0.0000 C   0  0  0  0  0  0  0  0  0  0  0  0
    1.9554    0.5645    0.0000 C   0  0  0  0  0  0  0  0  0  0  0  0
    1.9554   -0.2605    0.0000 C   0  0  0  0  0  0  0  0  0  0  0  0
    1.2409   -0.6730    0.0000 C   0  0  0  0  0  0  0  0  0  0  0  0
    2.6699   -0.6730    0.0000 N   0  0  0  0  0  0  0  0  0  0  0  0
    3.3843   -0.2605    0.0000 C   0  0  0  0  0  0  0  0  0  0  0  0
    2.6699   -1.4980    0.0000 C   0  0  0  0  0  0  0  0  0  0  0  0
    5.7415    0.0000    0.0000 Cl  0  5  0  0  0  0  0  0  0  0  0  0
  1  2  2  0  0  0  0
  2  3  1  0  0  0  0
  3  4  2  0  0  0  0
  4  5  1  0  0  0  0
  5  6  2  0  0  0  0
  1  6  1  0  0  0  0
  6  7  1  0  0  0  0
  7  8  2  0  0  0  0
  8  9  1  0  0  0  0
  8 10  1  0  0  0  0
 10 11  2  0  0  0  0
  5 11  1  0  0  0  0
 10 12  1  0  0  0  0
  3 13  1  0  0  0  0
 13 14  2  0  0  0  0
 14 15  1  0  0  0  0
 15 16  2  0  0  0  0
  2 16  1  0  0  0  0
 15 17  1  0  0  0  0
 17 18  1  0  0  0  0
 17 19  1  0  0  0  0
M  CHG  2   1   1  20  -1
M  END
>  <Name>
Blutene chloride

>  <CAS>
92-31-9

>  <Formula>
C15H16ClN3S

>  <MolWt>
305.83 

>  <Bioactivity>
A phenothiazine that has been used as a hemostatic, a biological stain, and a dye for wool and silk. Tolonium chloride has also been used as a diagnostic aid for oral and gastric neoplasms and in the identification of the parathyroid gland in thyroid surgery.  

>  <Pathways>
Others

>  <Target>
Others

>  <Receptor>
Others

>  <Reference>
1. Taha M, et al. Mater Sci Eng C Mater Biol Appl. 2013 Jul 1;33(5):2639-47. 

$$$$
136-77-6
  Mrv1561503291623562D          

 14 14  0  0  0  0            999 V2000
   -2.1434    2.8875    0.0000 C   0  0  0  0  0  0  0  0  0  0  0  0
   -1.4289    2.4750    0.0000 C   0  0  0  0  0  0  0  0  0  0  0  0
   -0.7145    2.8875    0.0000 O   0  0  0  0  0  0  0  0  0  0  0  0
   -1.4289    1.6500    0.0000 C   0  0  0  0  0  0  0  0  0  0  0  0
   -2.1434    1.2375    0.0000 C   0  0  0  0  0  0  0  0  0  0  0  0
   -2.8579    1.6500    0.0000 C   0  0  0  0  0  0  0  0  0  0  0  0
   -2.8579    2.4750    0.0000 C   0  0  0  0  0  0  0  0  0  0  0  0
   -3.5724    2.8875    0.0000 O   0  0  0  0  0  0  0  0  0  0  0  0
   -0.7145    1.2375    0.0000 C   0  0  0  0  0  0  0  0  0  0  0  0
    0.0000    1.6500    0.0000 C   0  0  0  0  0  0  0  0  0  0  0  0
    0.7145    1.2375    0.0000 C   0  0  0  0  0  0  0  0  0  0  0  0
    1.4289    1.6500    0.0000 C   0  0  0  0  0  0  0  0  0  0  0  0
    2.1434    1.2375    0.0000 C   0  0  0  0  0  0  0  0  0  0  0  0
    2.8579    1.6500    0.0000 C   0  0  0  0  0  0  0  0  0  0  0  0
  1  2  2  0  0  0  0
  2  3  1  0  0  0  0
  2  4  1  0  0  0  0
  4  5  2  0  0  0  0
  5  6  1  0  0  0  0
  6  7  2  0  0  0  0
  1  7  1  0  0  0  0
  7  8  1  0  0  0  0
  4  9  1  0  0  0  0
  9 10  1  0  0  0  0
 10 11  1  0  0  0  0
 11 12  1  0  0  0  0
 12 13  1  0  0  0  0
 13 14  1  0  0  0  0
M  END
>  <Name>
Antascarin

>  <CAS>
136-77-6

>  <Formula>
C12H18O2

>  <MolWt>
194.27 

>  <Bioactivity>
A substituted dihydroxybenzene used topically as an antiseptic for the treatment of minor skin infections.

>  <Pathways>
Others

>  <Target>
Others

>  <Receptor>
Others

>  <Reference>
1. Kweon H, et al. Biomaterials. 2014 Oct;35(30):8576-84.

$$$$
T0328
  Mrv1561503291623562D          

 24 24  0  0  0  0            999 V2000
    4.6184   -2.2836    0.0000 C   0  0  0  0  0  0  0  0  0  0  0  0
    5.4434   -2.2836    0.0000 N   0  0  0  0  0  0  0  0  0  0  0  0
    5.8559   -1.5691    0.0000 C   0  0  0  0  0  0  0  0  0  0  0  0
    6.6809   -1.5691    0.0000 N   0  0  0  0  0  0  0  0  0  0  0  0
    7.0934   -2.2836    0.0000 C   0  0  0  0  0  0  0  0  0  0  0  0
    6.6809   -2.9980    0.0000 C   0  0  0  0  0  0  0  0  0  0  0  0
    5.8559   -2.9980    0.0000 C   0  0  0  0  0  0  0  0  0  0  0  0
    7.3806   -3.4352    0.0000 C   0  0  0  0  0  0  0  0  0  0  0  0
    6.7097   -3.8225    0.0000 N   0  0  0  0  0  0  0  0  0  0  0  0
    7.0934   -0.8546    0.0000 C   0  0  0  0  0  0  0  0  0  0  0  0
    7.9184   -0.8546    0.0000 C   0  0  0  0  0  0  0  0  0  0  0  0
    8.3309   -0.1401    0.0000 C   0  0  0  0  0  0  0  0  0  0  0  0
    9.1559   -0.1401    0.0000 C   0  0  0  0  0  0  0  0  0  0  0  0
    9.5684    0.5743    0.0000 C   0  0  0  0  0  0  0  0  0  0  0  0
   10.3934    0.5743    0.0000 C   0  0  0  0  0  0  0  0  0  0  0  0
    8.3309   -1.5691    0.0000 C   0  0  0  0  0  0  0  0  0  0  0  0
    7.9184   -2.2836    0.0000 C   0  0  0  0  0  0  0  0  0  0  0  0
    4.2059   -2.9980    0.0000 C   0  0  0  0  0  0  0  0  0  0  0  0
    3.3809   -2.9980    0.0000 C   0  0  0  0  0  0  0  0  0  0  0  0
    2.9684   -3.7125    0.0000 C   0  0  0  0  0  0  0  0  0  0  0  0
    2.1434   -3.7125    0.0000 C   0  0  0  0  0  0  0  0  0  0  0  0
    1.7309   -4.4270    0.0000 C   0  0  0  0  0  0  0  0  0  0  0  0
    4.6184   -3.7125    0.0000 C   0  0  0  0  0  0  0  0  0  0  0  0
    4.2059   -4.4270    0.0000 C   0  0  0  0  0  0  0  0  0  0  0  0
  1  2  1  0  0  0  0
  2  3  1  0  0  0  0
  3  4  1  0  0  0  0
  4  5  1  0  0  0  0
  5  6  1  0  0  0  0
  6  7  1  0  0  0  0
  2  7  1  0  0  0  0
  6  8  1  0  0  0  0
  6  9  1  0  0  0  0
  4 10  1  0  0  0  0
 10 11  1  0  0  0  0
 11 12  1  0  0  0  0
 12 13  1  0  0  0  0
 13 14  1  0  0  0  0
 14 15  1  0  0  0  0
 11 16  1  0  0  0  0
 16 17  1  0  0  0  0
  1 18  1  0  0  0  0
 18 19  1  0  0  0  0
 19 20  1  0  0  0  0
 20 21  1  0  0  0  0
 21 22  1  0  0  0  0
 18 23  1  0  0  0  0
 23 24  1  0  0  0  0
M  END
>  <Name>
Hexetidine

>  <CAS>
141-94-6

>  <Formula>
C21H45N3

>  <MolWt>
339.61 

>  <Bioactivity>
A bactericidal and fungicidal antiseptic. It is used as a 0.1% mouthwash for local infections and oral hygiene. (From Martindale, The Extra Pharmacopoeia, 30th ed, p797) 

>  <Pathways>
Microbiology & Virology

>  <Target>
Antifungal

>  <Receptor>
Others

>  <Reference>
1. Afennich F, et al. Int J Dent Hyg. 2011 Aug;9(3):182-90. 

$$$$
T0331
  Mrv1561503291623562D          

 31 33  0  0  0  0            999 V2000
    0.4125    0.0000    0.0000 H   0  3  0  0  0  0  0  0  0  0  0  0
    5.1857    1.2006    0.0000 C   0  0  0  0  0  0  0  0  0  0  0  0
    4.7732    0.4861    0.0000 C   0  0  0  0  0  0  0  0  0  0  0  0
    5.1857   -0.2283    0.0000 C   0  0  0  0  0  0  0  0  0  0  0  0
    6.0107   -0.2283    0.0000 C   0  0  0  0  0  0  0  0  0  0  0  0
    6.4232   -0.9428    0.0000 O   0  0  0  0  0  0  0  0  0  0  0  0
    7.2482   -0.9428    0.0000 C   0  0  0  0  0  0  0  0  0  0  0  0
    6.4232    0.4861    0.0000 C   0  0  0  0  0  0  0  0  0  0  0  0
    6.0107    1.2006    0.0000 C   0  0  0  0  0  0  0  0  0  0  0  0
    6.4232    1.9151    0.0000 F   0  0  0  0  0  0  0  0  0  0  0  0
    7.2482    0.4861    0.0000 N   0  0  0  0  0  0  0  0  0  0  0  0
    7.7331   -0.1813    0.0000 C   0  0  0  0  0  0  0  0  0  0  0  0
    8.5178    0.0736    0.0000 C   0  0  0  0  0  0  0  0  0  0  0  0
    8.5178    0.8986    0.0000 C   0  0  0  0  0  0  0  0  0  0  0  0
    9.2322    1.3111    0.0000 N   0  0  0  0  0  0  0  0  0  0  0  0
    9.9467    0.8986    0.0000 C   0  0  0  0  0  0  0  0  0  0  0  0
    9.9467    0.0736    0.0000 C   0  0  0  0  0  0  0  0  0  0  0  0
    9.2322   -0.3389    0.0000 C   0  0  0  0  0  0  0  0  0  0  0  0
    7.7331    1.1536    0.0000 C   0  0  0  0  0  0  0  0  0  0  0  0
    4.7732   -0.9428    0.0000 N   0  0  0  0  0  0  0  0  0  0  0  0
    5.1857   -1.6573    0.0000 C   0  0  0  0  0  0  0  0  0  0  0  0
    5.9002   -2.0698    0.0000 C   0  0  0  0  0  0  0  0  0  0  0  0
    5.1857   -2.4823    0.0000 C   0  0  0  0  0  0  0  0  0  0  0  0
    3.9482   -0.9428    0.0000 C   0  0  0  0  0  0  0  0  0  0  0  0
    3.5357   -0.2283    0.0000 C   0  0  0  0  0  0  0  0  0  0  0  0
    3.9482    0.4861    0.0000 C   0  0  0  0  0  0  0  0  0  0  0  0
    3.5357    1.2006    0.0000 O   0  0  0  0  0  0  0  0  0  0  0  0
    2.7107   -0.2283    0.0000 C   0  0  0  0  0  0  0  0  0  0  0  0
    2.2982   -0.9428    0.0000 O   0  0  0  0  0  0  0  0  0  0  0  0
    2.2982    0.4861    0.0000 O   0  0  0  0  0  0  0  0  0  0  0  0
   -0.4125    0.0000    0.0000 Cl  0  5  0  0  0  0  0  0  0  0  0  0
  2  3  2  0  0  0  0
  3  4  1  0  0  0  0
  4  5  2  0  0  0  0
  5  6  1  0  0  0  0
  6  7  1  0  0  0  0
  5  8  1  0  0  0  0
  8  9  2  0  0  0  0
  2  9  1  0  0  0  0
  9 10  1  0  0  0  0
  8 11  1  0  0  0  0
 11 12  1  0  0  0  0
 12 13  1  0  0  0  0
 13 14  1  0  0  0  0
 14 15  1  0  0  0  0
 15 16  1  0  0  0  0
 16 17  1  0  0  0  0
 17 18  1  0  0  0  0
 13 18  1  0  0  0  0
 14 19  1  0  0  0  0
 11 19  1  0  0  0  0
  4 20  1  0  0  0  0
 20 21  1  0  0  0  0
 21 22  1  0  0  0  0
 22 23  1  0  0  0  0
 21 23  1  0  0  0  0
 20 24  1  0  0  0  0
 24 25  2  0  0  0  0
 25 26  1  0  0  0  0
  3 26  1  0  0  0  0
 26 27  2  0  0  0  0
 25 28  1  0  0  0  0
 28 29  1  0  0  0  0
 28 30  2  0  0  0  0
M  CHG  2   1   1  31  -1
M  END
>  <Name>
Moxifloxacin HCl

>  <CAS>
186826-86-8

>  <Formula>
C23H29ClFN3O4

>  <MolWt>
437.89 

>  <Bioactivity>
Moxifloxacin is a fourth-generation synthetic fluoroquinolone antibacterial agent.

>  <Pathways>
DNA Damage/DNA Repair

>  <Target>
Topoisomerase inhibitor

>  <Receptor>
Topoisomerase II, IV

>  <Reference>
1. Reuveni D, et al. Int J Oncol. 2010 Aug; 37(2):463-71. 

$$$$
143-74-8
  Mrv1561503291623562D          

 25 28  0  0  0  0            999 V2000
    3.2789    1.2375    0.0000 C   0  0  0  0  0  0  0  0  0  0  0  0
    3.9934    0.8250    0.0000 C   0  0  0  0  0  0  0  0  0  0  0  0
    3.9934    0.0000    0.0000 C   0  0  0  0  0  0  0  0  0  0  0  0
    3.2789   -0.4125    0.0000 C   0  0  0  0  0  0  0  0  0  0  0  0
    2.5645   -0.0000    0.0000 C   0  0  0  0  0  0  0  0  0  0  0  0
    2.5645    0.8250    0.0000 C   0  0  0  0  0  0  0  0  0  0  0  0
    1.7798    1.0799    0.0000 C   0  0  0  0  0  0  0  0  0  0  0  0
    2.1154    1.8336    0.0000 C   0  0  0  0  0  0  0  0  0  0  0  0
    1.6305    2.5011    0.0000 C   0  0  0  0  0  0  0  0  0  0  0  0
    1.9660    3.2547    0.0000 C   0  0  0  0  0  0  0  0  0  0  0  0
    2.7865    3.3410    0.0000 C   0  0  0  0  0  0  0  0  0  0  0  0
    3.2714    2.6735    0.0000 C   0  0  0  0  0  0  0  0  0  0  0  0
    2.9359    1.9199    0.0000 C   0  0  0  0  0  0  0  0  0  0  0  0
    3.1221    4.0946    0.0000 O   0  0  0  0  0  0  0  0  0  0  0  0
    1.0654    1.4924    0.0000 C   0  0  0  0  0  0  0  0  0  0  0  0
    0.3509    1.0799    0.0000 C   0  0  0  0  0  0  0  0  0  0  0  0
   -0.3636    1.4924    0.0000 C   0  0  0  0  0  0  0  0  0  0  0  0
   -0.3636    2.3174    0.0000 C   0  0  0  0  0  0  0  0  0  0  0  0
    0.3509    2.7299    0.0000 C   0  0  0  0  0  0  0  0  0  0  0  0
    1.0654    2.3174    0.0000 C   0  0  0  0  0  0  0  0  0  0  0  0
   -1.0780    2.7299    0.0000 O   0  0  0  0  0  0  0  0  0  0  0  0
    1.2949    0.4125    0.0000 O   0  0  0  0  0  0  0  0  0  0  0  0
    1.7798   -0.2549    0.0000 S   0  0  0  0  0  0  0  0  0  0  0  0
    1.1726   -0.8134    0.0000 O   0  0  0  0  0  0  0  0  0  0  0  0
    1.9429   -1.0637    0.0000 O   0  0  0  0  0  0  0  0  0  0  0  0
  1  2  2  0  0  0  0
  2  3  1  0  0  0  0
  3  4  2  0  0  0  0
  4  5  1  0  0  0  0
  5  6  2  0  0  0  0
  1  6  1  0  0  0  0
  6  7  1  0  0  0  0
  7  8  1  0  0  0  0
  8  9  2  0  0  0  0
  9 10  1  0  0  0  0
 10 11  2  0  0  0  0
 11 12  1  0  0  0  0
 12 13  2  0  0  0  0
  8 13  1  0  0  0  0
 11 14  1  0  0  0  0
  7 15  1  0  0  0  0
 15 16  2  0  0  0  0
 16 17  1  0  0  0  0
 17 18  2  0  0  0  0
 18 19  1  0  0  0  0
 19 20  2  0  0  0  0
 15 20  1  0  0  0  0
 18 21  1  0  0  0  0
  7 22  1  0  0  0  0
 22 23  1  0  0  0  0
  5 23  1  0  0  0  0
 23 24  2  0  0  0  0
 23 25  2  0  0  0  0
M  END
>  <Name>
Phenol Red

>  <CAS>
143-74-8

>  <Formula>
C19H14O5S

>  <MolWt>
354.38 

>  <Bioactivity>
Red dye, pH indicator, and diagnostic aid for determination of renal function. It is used also for studies of the gastrointestinal and other systems.

>  <Pathways>
Others

>  <Target>
Others

>  <Receptor>
Others

>  <Reference>
1. Tamura, Z. Yakugaku Zasshi (in Japanese), 1997, 117 (10–11): 764–770.

$$$$
T0381
  Mrv1561503291623562D          

 31 27  0  0  0  0            999 V2000
    0.4125    0.0000    0.0000 H   0  3  0  0  0  0  0  0  0  0  0  0
    3.5946    0.0000    0.0000 H   0  3  0  0  0  0  0  0  0  0  0  0
    6.9093   -0.9900    0.0000 C   0  0  0  0  0  0  0  0  0  0  0  0
    6.9093   -0.1650    0.0000 C   0  0  0  0  0  0  0  0  0  0  0  0
    6.1948    0.2475    0.0000 N   0  0  0  0  0  0  0  0  0  0  0  0
    6.1948    1.0725    0.0000 C   0  0  0  0  0  0  0  0  0  0  0  0
    6.9093    1.4850    0.0000 C   0  0  0  0  0  0  0  0  0  0  0  0
    6.9093    2.3100    0.0000 C   0  0  0  0  0  0  0  0  0  0  0  0
    6.1948    2.7225    0.0000 N   0  0  0  0  0  0  0  0  0  0  0  0
    5.4804    2.3100    0.0000 C   0  0  0  0  0  0  0  0  0  0  0  0
    5.4804    1.4850    0.0000 C   0  0  0  0  0  0  0  0  0  0  0  0
    7.6238    2.7225    0.0000 C   0  0  0  0  0  0  0  0  0  0  0  0
    8.3382    2.3100    0.0000 C   0  0  0  0  0  0  0  0  0  0  0  0
    9.0527    2.7225    0.0000 Cl  0  0  0  0  0  0  0  0  0  0  0  0
    8.3382    1.4850    0.0000 C   0  0  0  0  0  0  0  0  0  0  0  0
    7.6238    1.0725    0.0000 C   0  0  0  0  0  0  0  0  0  0  0  0
    7.6238    0.2475    0.0000 C   0  0  0  0  0  0  0  0  0  0  0  0
    8.3382   -0.1650    0.0000 C   0  0  0  0  0  0  0  0  0  0  0  0
    8.3382   -0.9900    0.0000 C   0  0  0  0  0  0  0  0  0  0  0  0
    7.6238   -1.4025    0.0000 C   0  0  0  0  0  0  0  0  0  0  0  0
    7.6238   -2.2275    0.0000 C   0  0  0  0  0  0  0  0  0  0  0  0
    8.3382   -2.6400    0.0000 N   0  0  0  0  0  0  0  0  0  0  0  0
    8.3382   -3.4650    0.0000 C   0  0  0  0  0  0  0  0  0  0  0  0
    9.0527   -3.8775    0.0000 C   0  0  0  0  0  0  0  0  0  0  0  0
    9.0527   -2.2275    0.0000 C   0  0  0  0  0  0  0  0  0  0  0  0
    9.7672   -2.6400    0.0000 C   0  0  0  0  0  0  0  0  0  0  0  0
    9.0527   -1.4025    0.0000 O   0  0  0  0  0  0  0  0  0  0  0  0
   -0.4125    0.0000    0.0000 Cl  0  5  0  0  0  0  0  0  0  0  0  0
    2.7696    0.0000    0.0000 Cl  0  5  0  0  0  0  0  0  0  0  0  0
    0.0000   -5.5275    0.0000 O   0  0  0  0  0  0  0  0  0  0  0  0
    2.3571   -5.5275    0.0000 O   0  0  0  0  0  0  0  0  0  0  0  0
  3  4  2  0  0  0  0
  4  5  1  0  0  0  0
  5  6  1  0  0  0  0
  6  7  2  0  0  0  0
  7  8  1  0  0  0  0
  8  9  2  0  0  0  0
  9 10  1  0  0  0  0
 10 11  2  0  0  0  0
  6 11  1  0  0  0  0
  8 12  1  0  0  0  0
 12 13  2  0  0  0  0
 13 14  1  0  0  0  0
 13 15  1  0  0  0  0
 15 16  2  0  0  0  0
  7 16  1  0  0  0  0
  4 17  1  0  0  0  0
 17 18  2  0  0  0  0
 18 19  1  0  0  0  0
 19 20  2  0  0  0  0
  3 20  1  0  0  0  0
 20 21  1  0  0  0  0
 21 22  1  0  0  0  0
 22 23  1  0  0  0  0
 23 24  1  0  0  0  0
 22 25  1  0  0  0  0
 25 26  1  0  0  0  0
 19 27  1  0  0  0  0
M  CHG  4   1   1   2   1  28  -1  29  -1
M  END
>  <Name>
Amodiaquin dihydrochloride dihydrate

>  <CAS>
6398-98-7

>  <Formula>
C20H24Cl3N3O

>  <MolWt>
464.82 

>  <Bioactivity>
A 4-aminoquinoline compound with anti-inflammatory properties. 

>  <Pathways>
Others

>  <Target>
Chelator;HNMT inhibitor

>  <Receptor>
Fe(II)-protoporphyrin IX;HNMT

>  <Reference>
1. de Villiers KA, et al. J Inorg Biochem. 2008 Aug;102(8):1660-7. 

$$$$
121-54-0
  Mrv1561503291623562D          

 31 31  0  0  0  0            999 V2000
   -2.5006   -0.7287    0.0000 C   0  0  0  0  0  0  0  0  0  0  0  0
   -3.2151   -0.3163    0.0000 C   0  0  0  0  0  0  0  0  0  0  0  0
   -3.2151    0.5088    0.0000 C   0  0  0  0  0  0  0  0  0  0  0  0
   -2.5006    0.9213    0.0000 C   0  0  0  0  0  0  0  0  0  0  0  0
   -1.7862    0.5088    0.0000 C   0  0  0  0  0  0  0  0  0  0  0  0
   -1.7862   -0.3163    0.0000 C   0  0  0  0  0  0  0  0  0  0  0  0
   -1.0717    0.9213    0.0000 O   0  0  0  0  0  0  0  0  0  0  0  0
   -0.3572    0.5088    0.0000 C   0  0  0  0  0  0  0  0  0  0  0  0
    0.3572    0.9213    0.0000 C   0  0  0  0  0  0  0  0  0  0  0  0
    1.0717    0.5088    0.0000 O   0  0  0  0  0  0  0  0  0  0  0  0
    1.7862    0.9213    0.0000 C   0  0  0  0  0  0  0  0  0  0  0  0
    2.5006    0.5088    0.0000 C   0  0  0  0  0  0  0  0  0  0  0  0
    3.2151    0.9213    0.0000 N   0  3  0  0  0  0  0  0  0  0  0  0
    3.9296    1.3338    0.0000 C   0  0  0  0  0  0  0  0  0  0  0  0
    4.6441    0.9213    0.0000 C   0  0  0  0  0  0  0  0  0  0  0  0
    5.3585    1.3338    0.0000 C   0  0  0  0  0  0  0  0  0  0  0  0
    6.0730    0.9213    0.0000 C   0  0  0  0  0  0  0  0  0  0  0  0
    6.0730    0.0963    0.0000 C   0  0  0  0  0  0  0  0  0  0  0  0
    5.3585   -0.3162    0.0000 C   0  0  0  0  0  0  0  0  0  0  0  0
    4.6441    0.0963    0.0000 C   0  0  0  0  0  0  0  0  0  0  0  0
    2.8026    1.6357    0.0000 C   0  0  0  0  0  0  0  0  0  0  0  0
    3.6276    0.2068    0.0000 C   0  0  0  0  0  0  0  0  0  0  0  0
   -3.9296   -0.7288    0.0000 C   0  0  0  0  0  0  0  0  0  0  0  0
   -4.6441   -1.1413    0.0000 C   0  0  0  0  0  0  0  0  0  0  0  0
   -4.6441   -1.9663    0.0000 C   0  0  0  0  0  0  0  0  0  0  0  0
   -4.6441   -2.7913    0.0000 C   0  0  0  0  0  0  0  0  0  0  0  0
   -5.4691   -1.9663    0.0000 C   0  0  0  0  0  0  0  0  0  0  0  0
   -3.8191   -1.9663    0.0000 C   0  0  0  0  0  0  0  0  0  0  0  0
   -4.3421   -0.0143    0.0000 C   0  0  0  0  0  0  0  0  0  0  0  0
   -3.5171   -1.4432    0.0000 C   0  0  0  0  0  0  0  0  0  0  0  0
    8.4301    0.0000    0.0000 Cl  0  5  0  0  0  0  0  0  0  0  0  0
  1  2  2  0  0  0  0
  2  3  1  0  0  0  0
  3  4  2  0  0  0  0
  4  5  1  0  0  0  0
  5  6  2  0  0  0  0
  1  6  1  0  0  0  0
  5  7  1  0  0  0  0
  7  8  1  0  0  0  0
  8  9  1  0  0  0  0
  9 10  1  0  0  0  0
 10 11  1  0  0  0  0
 11 12  1  0  0  0  0
 12 13  1  0  0  0  0
 13 14  1  0  0  0  0
 14 15  1  0  0  0  0
 15 16  2  0  0  0  0
 16 17  1  0  0  0  0
 17 18  2  0  0  0  0
 18 19  1  0  0  0  0
 19 20  2  0  0  0  0
 15 20  1  0  0  0  0
 13 21  1  0  0  0  0
 13 22  1  0  0  0  0
  2 23  1  0  0  0  0
 23 24  1  0  0  0  0
 24 25  1  0  0  0  0
 25 26  1  0  0  0  0
 25 27  1  0  0  0  0
 25 28  1  0  0  0  0
 23 29  1  0  0  0  0
 23 30  1  0  0  0  0
M  CHG  2  13   1  31  -1
M  END
>  <Name>
Benzethonium chloride

>  <CAS>
121-54-0

>  <Formula>
C27H42ClNO2

>  <MolWt>
448.09 

>  <Bioactivity>
Bactericidal cationic quaternary ammonium surfactant used as a topical anti-infective agent. It is an ingredient in medicaments, deodorants, mouthwashes, etc., and is used to disinfect apparatus, etc., in the food processing and pharmaceutical industries, in surgery, and also as a preservative. The compound is toxic orally as a result of neuromuscular blockade.  

>  <Pathways>
Neuroscience

>  <Target>
AChR antagonist

>  <Receptor>
?4?2 nAChRs, ?7 nAChRs

>  <Reference>
1. Lang E, et al. Cell Physiol Biochem, 2011, 28(2), 347-354.

$$$$
T0412
  Mrv1561503291623562D          

 24 24  0  0  0  0            999 V2000
   -0.7145   -1.2375    0.0000 C   0  0  0  0  0  0  0  0  0  0  0  0
   -1.4289   -1.6500    0.0000 C   0  0  0  0  0  0  0  0  0  0  0  0
   -1.4289   -2.4750    0.0000 C   0  0  0  0  0  0  0  0  0  0  0  0
   -2.1434   -2.8875    0.0000 C   0  0  0  0  0  0  0  0  0  0  0  0
   -2.8579   -2.4750    0.0000 C   0  0  0  0  0  0  0  0  0  0  0  0
   -2.8579   -1.6500    0.0000 C   0  0  0  0  0  0  0  0  0  0  0  0
   -2.1434   -1.2375    0.0000 C   0  0  0  0  0  0  0  0  0  0  0  0
   -2.1434   -0.4125    0.0000 O   0  0  0  0  0  0  0  0  0  0  0  0
   -3.5724   -1.2375    0.0000 O   0  0  0  0  0  0  0  0  0  0  0  0
   -3.5724   -0.4125    0.0000 C   0  0  0  0  0  0  0  0  0  0  0  0
   -3.5724   -2.8875    0.0000 O   0  0  0  0  0  0  0  0  0  0  0  0
   -4.2868   -2.4750    0.0000 C   0  0  0  0  0  0  0  0  0  0  0  0
   -2.1434   -3.7125    0.0000 O   0  0  0  0  0  0  0  0  0  0  0  0
   -0.7145   -2.8875    0.0000 C   0  0  0  0  0  0  0  0  0  0  0  0
   -0.0000   -1.6500    0.0000 C   0  0  0  0  0  0  0  0  0  0  0  0
    0.7145   -1.2375    0.0000 C   0  0  0  0  0  0  0  0  0  0  0  0
    1.4289   -1.6500    0.0000 C   0  0  0  0  0  0  0  0  0  0  0  0
    2.1434   -1.2375    0.0000 C   0  0  0  0  0  0  0  0  0  0  0  0
    2.8579   -1.6500    0.0000 C   0  0  0  0  0  0  0  0  0  0  0  0
    3.5724   -1.2375    0.0000 C   0  0  0  0  0  0  0  0  0  0  0  0
    4.2868   -1.6500    0.0000 C   0  0  0  0  0  0  0  0  0  0  0  0
    5.0013   -1.2375    0.0000 C   0  0  0  0  0  0  0  0  0  0  0  0
    5.7158   -1.6500    0.0000 C   0  0  0  0  0  0  0  0  0  0  0  0
    6.4302   -1.2375    0.0000 O   0  0  0  0  0  0  0  0  0  0  0  0
  1  2  1  0  0  0  0
  2  3  2  0  0  0  0
  3  4  1  0  0  0  0
  4  5  1  0  0  0  0
  5  6  2  0  0  0  0
  6  7  1  0  0  0  0
  2  7  1  0  0  0  0
  7  8  2  0  0  0  0
  6  9  1  0  0  0  0
  9 10  1  0  0  0  0
  5 11  1  0  0  0  0
 11 12  1  0  0  0  0
  4 13  2  0  0  0  0
  3 14  1  0  0  0  0
  1 15  1  0  0  0  0
 15 16  1  0  0  0  0
 16 17  1  0  0  0  0
 17 18  1  0  0  0  0
 18 19  1  0  0  0  0
 19 20  1  0  0  0  0
 20 21  1  0  0  0  0
 21 22  1  0  0  0  0
 22 23  1  0  0  0  0
 23 24  1  0  0  0  0
M  END
>  <Name>
Idebenone

>  <CAS>
58186-27-9

>  <Formula>
C19H30O5

>  <MolWt>
338.45 

>  <Bioactivity>
Idebenone is a synthetic analog of coenzyme Q10 (CoQ10) and a brain stimulant.

>  <Pathways>
Immunology/Inflammation

>  <Target>
ROS inhibitor

>  <Receptor>
Antioxidant

>  <Reference>
1. Rego AC, et al. Free Radic Biol Med, 1999, 26(11-12), 1405-1417.

$$$$
57-96-5
  Mrv1561503291623562D          

 29 32  0  0  0  0            999 V2000
    2.0367   -1.2991    0.0000 C   0  0  0  0  0  0  0  0  0  0  0  0
    2.0367   -0.4741    0.0000 C   0  0  0  0  0  0  0  0  0  0  0  0
    2.7512   -0.0616    0.0000 C   0  0  0  0  0  0  0  0  0  0  0  0
    3.4656   -0.4741    0.0000 C   0  0  0  0  0  0  0  0  0  0  0  0
    3.4656   -1.2991    0.0000 C   0  0  0  0  0  0  0  0  0  0  0  0
    2.7512   -1.7116    0.0000 C   0  0  0  0  0  0  0  0  0  0  0  0
    2.7512   -2.5366    0.0000 N   0  0  0  0  0  0  0  0  0  0  0  0
    3.4186   -3.0215    0.0000 N   0  0  0  0  0  0  0  0  0  0  0  0
    4.2032   -2.7666    0.0000 C   0  0  0  0  0  0  0  0  0  0  0  0
    4.3748   -1.9596    0.0000 C   0  0  0  0  0  0  0  0  0  0  0  0
    5.1594   -1.7047    0.0000 C   0  0  0  0  0  0  0  0  0  0  0  0
    5.7725   -2.2567    0.0000 C   0  0  0  0  0  0  0  0  0  0  0  0
    5.6010   -3.0637    0.0000 C   0  0  0  0  0  0  0  0  0  0  0  0
    4.8163   -3.3186    0.0000 C   0  0  0  0  0  0  0  0  0  0  0  0
    3.1637   -3.8062    0.0000 C   0  0  0  0  0  0  0  0  0  0  0  0
    3.6486   -4.4736    0.0000 O   0  0  0  0  0  0  0  0  0  0  0  0
    2.3387   -3.8062    0.0000 C   0  0  0  0  0  0  0  0  0  0  0  0
    2.0837   -3.0215    0.0000 C   0  0  0  0  0  0  0  0  0  0  0  0
    1.2991   -2.7666    0.0000 O   0  0  0  0  0  0  0  0  0  0  0  0
    1.8538   -4.4736    0.0000 C   0  0  0  0  0  0  0  0  0  0  0  0
    1.0333   -4.3874    0.0000 C   0  0  0  0  0  0  0  0  0  0  0  0
    0.5484   -5.0548    0.0000 S   0  0  0  0  0  0  0  0  0  0  0  0
   -0.2721   -4.9686    0.0000 C   0  0  0  0  0  0  0  0  0  0  0  0
   -0.7571   -5.6360    0.0000 C   0  0  0  0  0  0  0  0  0  0  0  0
   -1.5775   -5.5498    0.0000 C   0  0  0  0  0  0  0  0  0  0  0  0
   -1.9131   -4.7961    0.0000 C   0  0  0  0  0  0  0  0  0  0  0  0
   -1.4282   -4.1286    0.0000 C   0  0  0  0  0  0  0  0  0  0  0  0
   -0.6077   -4.2149    0.0000 C   0  0  0  0  0  0  0  0  0  0  0  0
    0.8839   -5.8085    0.0000 O   0  0  0  0  0  0  0  0  0  0  0  0
  1  2  2  0  0  0  0
  2  3  1  0  0  0  0
  3  4  2  0  0  0  0
  4  5  1  0  0  0  0
  5  6  2  0  0  0  0
  1  6  1  0  0  0  0
  6  7  1  0  0  0  0
  7  8  1  0  0  0  0
  8  9  1  0  0  0  0
  9 10  2  0  0  0  0
 10 11  1  0  0  0  0
 11 12  2  0  0  0  0
 12 13  1  0  0  0  0
 13 14  2  0  0  0  0
  9 14  1  0  0  0  0
  8 15  1  0  0  0  0
 15 16  2  0  0  0  0
 15 17  1  0  0  0  0
 17 18  1  0  0  0  0
  7 18  1  0  0  0  0
 18 19  2  0  0  0  0
 17 20  1  0  0  0  0
 20 21  1  0  0  0  0
 21 22  1  0  0  0  0
 22 23  1  0  0  0  0
 23 24  2  0  0  0  0
 24 25  1  0  0  0  0
 25 26  2  0  0  0  0
 26 27  1  0  0  0  0
 27 28  2  0  0  0  0
 23 28  1  0  0  0  0
 22 29  2  0  0  0  0
M  END
>  <Name>
Sulfinpyrazone

>  <CAS>
57-96-5

>  <Formula>
C23H20N2O3S

>  <MolWt>
404.48 

>  <Bioactivity>
A uricosuric drug that is used to reduce the serum urate levels in gout therapy. It lacks anti-inflammatory, analgesic, and diuretic properties.

>  <Pathways>
Immunology/Inflammation

>  <Target>
MRP inhibitor

>  <Receptor>
cMOAT;MRAP1,MRAP4,MRAP5

>  <Reference>
1. Pay GF, et al. Haemostasis. 1981;10(3):165-75.

$$$$
57-08-9
  Mrv1561503291623562D          

 13 11  0  0  0  0            999 V2000
   -1.0717    0.2062    0.0000 C   0  0  0  0  0  0  0  0  0  0  0  0
   -1.7862   -0.2063    0.0000 N   0  0  0  0  0  0  0  0  0  0  0  0
   -2.5006    0.2062    0.0000 C   0  0  0  0  0  0  0  0  0  0  0  0
   -3.2151   -0.2063    0.0000 O   0  0  0  0  0  0  0  0  0  0  0  0
   -2.5006    1.0312    0.0000 C   0  0  0  0  0  0  0  0  0  0  0  0
   -0.3572   -0.2062    0.0000 C   0  0  0  0  0  0  0  0  0  0  0  0
    0.3572    0.2063    0.0000 C   0  0  0  0  0  0  0  0  0  0  0  0
    1.0717   -0.2062    0.0000 C   0  0  0  0  0  0  0  0  0  0  0  0
    1.7862    0.2063    0.0000 C   0  0  0  0  0  0  0  0  0  0  0  0
    2.5006   -0.2062    0.0000 C   0  0  0  0  0  0  0  0  0  0  0  0
    3.2151    0.2063    0.0000 O   0  0  0  0  0  0  0  0  0  0  0  0
    2.5006   -1.0312    0.0000 O   0  0  0  0  0  0  0  0  0  0  0  0
    5.5723    0.0000    0.0000 Na  0  3  0  0  0  0  0  0  0  0  0  0
  1  2  1  0  0  0  0
  2  3  1  0  0  0  0
  3  4  2  0  0  0  0
  3  5  1  0  0  0  0
  1  6  1  0  0  0  0
  6  7  1  0  0  0  0
  7  8  1  0  0  0  0
  8  9  1  0  0  0  0
  9 10  1  0  0  0  0
 10 11  1  0  0  0  0
 10 12  2  0  0  0  0
M  CHG  1  13   1
M  END
>  <Name>
Acexamic Acid

>  <CAS>
57-08-9

>  <Formula>
C8H15NO3

>  <MolWt>
173.21 

>  <Bioactivity>
6-Acetamidohexanoic acid is a kind of amino acids deriviate.

>  <Pathways>
Neuroscience

>  <Target>
COX inhibitor;Amino Acids and Derivatives

>  <Receptor>
Prostaglandin G/H synthase;Amino Acids and Derivatives

>  <Reference>
1. Lee U, et al. Xenobiotica. 2012 Mar;42(3):310-5. 

$$$$
T0447
  Mrv1561503291623562D          

 30 33  0  0  0  0            999 V2000
    1.0279   -1.8869    0.0000 C   0  0  0  0  0  0  0  0  0  0  0  0
    0.6923   -2.6406    0.0000 C   0  0  0  0  0  0  0  0  0  0  0  0
   -0.1282   -2.7268    0.0000 C   0  0  0  0  0  0  0  0  0  0  0  0
   -0.6131   -2.0594    0.0000 C   0  0  0  0  0  0  0  0  0  0  0  0
   -0.2775   -1.3057    0.0000 C   0  0  0  0  0  0  0  0  0  0  0  0
    0.5429   -1.2195    0.0000 C   0  0  0  0  0  0  0  0  0  0  0  0
    0.7145   -0.4125    0.0000 C   0  0  0  0  0  0  0  0  0  0  0  0
   -0.0000   -0.0000    0.0000 C   0  0  0  0  0  0  0  0  0  0  0  0
   -0.6131   -0.5520    0.0000 N   0  0  0  0  0  0  0  0  0  0  0  0
   -0.0000    0.8250    0.0000 C   0  0  0  0  0  0  0  0  0  0  0  0
    0.7145    1.2375    0.0000 C   0  0  0  0  0  0  0  0  0  0  0  0
    1.4289    0.8250    0.0000 C   0  0  0  0  0  0  0  0  0  0  0  0
    1.4289   -0.0000    0.0000 C   0  0  0  0  0  0  0  0  0  0  0  0
    2.1434   -0.4125    0.0000 O   0  0  0  0  0  0  0  0  0  0  0  0
    2.8579   -0.0000    0.0000 C   0  0  0  0  0  0  0  0  0  0  0  0
    3.5724   -0.4125    0.0000 C   0  0  0  0  0  0  0  0  0  0  0  0
    4.2868   -0.0000    0.0000 C   0  0  0  0  0  0  0  0  0  0  0  0
    5.0013   -0.4125    0.0000 N   0  0  0  0  0  0  0  0  0  0  0  0
    5.7158   -0.0000    0.0000 C   0  0  0  0  0  0  0  0  0  0  0  0
    6.4302   -0.4125    0.0000 C   0  0  0  0  0  0  0  0  0  0  0  0
    7.1447   -0.0000    0.0000 O   0  0  0  0  0  0  0  0  0  0  0  0
    7.8592   -0.4125    0.0000 C   0  0  0  0  0  0  0  0  0  0  0  0
    8.5737   -0.0000    0.0000 C   0  0  0  0  0  0  0  0  0  0  0  0
    9.2881   -0.4125    0.0000 C   0  0  0  0  0  0  0  0  0  0  0  0
    9.2881   -1.2375    0.0000 C   0  0  0  0  0  0  0  0  0  0  0  0
    8.5737   -1.6500    0.0000 C   0  0  0  0  0  0  0  0  0  0  0  0
    7.8592   -1.2375    0.0000 C   0  0  0  0  0  0  0  0  0  0  0  0
    8.5737    0.8250    0.0000 O   0  0  0  0  0  0  0  0  0  0  0  0
    9.2881    1.2375    0.0000 C   0  0  0  0  0  0  0  0  0  0  0  0
    3.5724   -1.2375    0.0000 O   0  0  0  0  0  0  0  0  0  0  0  0
  1  2  2  0  0  0  0
  2  3  1  0  0  0  0
  3  4  2  0  0  0  0
  4  5  1  0  0  0  0
  5  6  2  0  0  0  0
  1  6  1  0  0  0  0
  6  7  1  0  0  0  0
  7  8  2  0  0  0  0
  8  9  1  0  0  0  0
  5  9  1  0  0  0  0
  8 10  1  0  0  0  0
 10 11  2  0  0  0  0
 11 12  1  0  0  0  0
 12 13  2  0  0  0  0
  7 13  1  0  0  0  0
 13 14  1  0  0  0  0
 14 15  1  0  0  0  0
 15 16  1  0  0  0  0
 16 17  1  0  0  0  0
 17 18  1  0  0  0  0
 18 19  1  0  0  0  0
 19 20  1  0  0  0  0
 20 21  1  0  0  0  0
 21 22  1  0  0  0  0
 22 23  2  0  0  0  0
 23 24  1  0  0  0  0
 24 25  2  0  0  0  0
 25 26  1  0  0  0  0
 26 27  2  0  0  0  0
 22 27  1  0  0  0  0
 23 28  1  0  0  0  0
 28 29  1  0  0  0  0
 16 30  1  0  0  0  0
M  END
>  <Name>
Carvedilol

>  <CAS>
72956-09-3

>  <Formula>
C24H26N2O4

>  <MolWt>
406.47 

>  <Bioactivity>
Carvedilol is a non-selective beta blocker/alpha-1 blocker with an IC50 of 3.8 ?M for inhibition of LDL oxidation.

>  <Pathways>
GPCR/G Protein;Chromatin/Epigenetic

>  <Target>
Potassium Channel inhibitor;VEGF;Vcam inhibitor;E-selectin inhibitor;Adrenergic Receptor antagonist; NADH inhibitor;HIF modulator

>  <Receptor>
Potassium Channel ;VEGF;Vcam;E-selectin;Adrenergic receptor; NADH;HIF

>  <Reference>
1. Koshimizu TA, et al. Cardiovasc Res. 2004 Sep 1; 63(4):662-72.

$$$$
54910-89-3
  Mrv1561503291623562D          

 22 23  0  0  0  0            999 V2000
    2.1434    0.4125    0.0000 C   0  0  0  0  0  0  0  0  0  0  0  0
    1.4289    0.0000    0.0000 C   0  0  0  0  0  0  0  0  0  0  0  0
    1.4289   -0.8250    0.0000 C   0  0  0  0  0  0  0  0  0  0  0  0
    0.7145   -1.2375    0.0000 O   0  0  0  0  0  0  0  0  0  0  0  0
   -0.0000   -0.8250    0.0000 C   0  0  0  0  0  0  0  0  0  0  0  0
   -0.7145   -1.2375    0.0000 C   0  0  0  0  0  0  0  0  0  0  0  0
   -1.4289   -0.8250    0.0000 C   0  0  0  0  0  0  0  0  0  0  0  0
   -1.4289    0.0000    0.0000 C   0  0  0  0  0  0  0  0  0  0  0  0
   -0.7145    0.4125    0.0000 C   0  0  0  0  0  0  0  0  0  0  0  0
   -0.0000    0.0000    0.0000 C   0  0  0  0  0  0  0  0  0  0  0  0
   -2.1434    0.4125    0.0000 C   0  0  0  0  0  0  0  0  0  0  0  0
   -2.8579    0.8250    0.0000 F   0  0  0  0  0  0  0  0  0  0  0  0
   -2.5559   -0.3020    0.0000 F   0  0  0  0  0  0  0  0  0  0  0  0
   -1.7309    1.1270    0.0000 F   0  0  0  0  0  0  0  0  0  0  0  0
    2.1434   -1.2375    0.0000 C   0  0  0  0  0  0  0  0  0  0  0  0
    2.8579   -0.8250    0.0000 C   0  0  0  0  0  0  0  0  0  0  0  0
    3.5724   -1.2375    0.0000 N   0  0  0  0  0  0  0  0  0  0  0  0
    4.2868   -0.8250    0.0000 C   0  0  0  0  0  0  0  0  0  0  0  0
    0.7145    0.4125    0.0000 C   0  0  0  0  0  0  0  0  0  0  0  0
    0.7145    1.2375    0.0000 C   0  0  0  0  0  0  0  0  0  0  0  0
    1.4289    1.6500    0.0000 C   0  0  0  0  0  0  0  0  0  0  0  0
    2.1434    1.2375    0.0000 C   0  0  0  0  0  0  0  0  0  0  0  0
  1  2  2  0  0  0  0
  2  3  1  0  0  0  0
  3  4  1  0  0  0  0
  4  5  1  0  0  0  0
  5  6  2  0  0  0  0
  6  7  1  0  0  0  0
  7  8  2  0  0  0  0
  8  9  1  0  0  0  0
  9 10  2  0  0  0  0
  5 10  1  0  0  0  0
  8 11  1  0  0  0  0
 11 12  1  0  0  0  0
 11 13  1  0  0  0  0
 11 14  1  0  0  0  0
  3 15  1  0  0  0  0
 15 16  1  0  0  0  0
 16 17  1  0  0  0  0
 17 18  1  0  0  0  0
  2 19  1  0  0  0  0
 19 20  2  0  0  0  0
 20 21  1  0  0  0  0
 21 22  2  0  0  0  0
  1 22  1  0  0  0  0
M  END
>  <Name>
Fluoxetine

>  <CAS>
54910-89-3

>  <Formula>
C17H19ClF3NO

>  <MolWt>
345.79 

>  <Bioactivity>
The first highly specific serotonin uptake inhibitor. It is used as an antidepressant and often has a more acceptable side-effects profile than traditional antidepressants. 

>  <Pathways>
Neuroscience

>  <Target>
MRP inhibitor;Serotonin uptake inhibitor

>  <Receptor>
MRP1; Sodium-dependent serotonin transporter

>  <Reference>
1. Richman A, et al. Epilepsy Res. 2007 Apr; 74(1):19-27.

$$$$
5786-21-0
  Mrv1561503291623562D          

 23 26  0  0  0  0            999 V2000
    5.5189    0.2898    0.0000 C   0  0  0  0  0  0  0  0  0  0  0  0
    6.1237    0.8510    0.0000 C   0  0  0  0  0  0  0  0  0  0  0  0
    6.9120    0.6078    0.0000 Cl  0  0  0  0  0  0  0  0  0  0  0  0
    5.9401    1.6553    0.0000 C   0  0  0  0  0  0  0  0  0  0  0  0
    5.1517    1.8985    0.0000 C   0  0  0  0  0  0  0  0  0  0  0  0
    4.5470    1.3373    0.0000 C   0  0  0  0  0  0  0  0  0  0  0  0
    4.7305    0.5330    0.0000 C   0  0  0  0  0  0  0  0  0  0  0  0
    4.2162   -0.1120    0.0000 N   0  0  0  0  0  0  0  0  0  0  0  0
    3.3912   -0.1120    0.0000 C   0  0  0  0  0  0  0  0  0  0  0  0
    2.8768    0.5330    0.0000 C   0  0  0  0  0  0  0  0  0  0  0  0
    3.0604    1.3373    0.0000 C   0  0  0  0  0  0  0  0  0  0  0  0
    3.8037    1.6953    0.0000 N   0  0  0  0  0  0  0  0  0  0  0  0
    2.4556    1.8985    0.0000 C   0  0  0  0  0  0  0  0  0  0  0  0
    1.6673    1.6553    0.0000 C   0  0  0  0  0  0  0  0  0  0  0  0
    1.4837    0.8510    0.0000 C   0  0  0  0  0  0  0  0  0  0  0  0
    2.0884    0.2898    0.0000 C   0  0  0  0  0  0  0  0  0  0  0  0
    3.0332   -0.8553    0.0000 N   0  0  0  0  0  0  0  0  0  0  0  0
    3.4980   -1.5370    0.0000 C   0  0  0  0  0  0  0  0  0  0  0  0
    3.1400   -2.2803    0.0000 C   0  0  0  0  0  0  0  0  0  0  0  0
    2.3173   -2.3419    0.0000 N   0  0  0  0  0  0  0  0  0  0  0  0
    1.8526   -1.6603    0.0000 C   0  0  0  0  0  0  0  0  0  0  0  0
    2.2105   -0.9170    0.0000 C   0  0  0  0  0  0  0  0  0  0  0  0
    1.9594   -3.0852    0.0000 C   0  0  0  0  0  0  0  0  0  0  0  0
  1  2  2  0  0  0  0
  2  3  1  0  0  0  0
  2  4  1  0  0  0  0
  4  5  2  0  0  0  0
  5  6  1  0  0  0  0
  6  7  2  0  0  0  0
  1  7  1  0  0  0  0
  7  8  1  0  0  0  0
  8  9  1  0  0  0  0
  9 10  2  0  0  0  0
 10 11  1  0  0  0  0
 11 12  2  0  0  0  0
  6 12  1  0  0  0  0
 11 13  1  0  0  0  0
 13 14  2  0  0  0  0
 14 15  1  0  0  0  0
 15 16  2  0  0  0  0
 10 16  1  0  0  0  0
  9 17  1  0  0  0  0
 17 18  1  0  0  0  0
 18 19  1  0  0  0  0
 19 20  1  0  0  0  0
 20 21  1  0  0  0  0
 21 22  1  0  0  0  0
 17 22  1  0  0  0  0
 20 23  1  0  0  0  0
M  END
>  <Name>
Clozapine

>  <CAS>
5786-21-0

>  <Formula>
C18H19ClN4

>  <MolWt>
326.82 

>  <Bioactivity>
A tricylic dibenzodiazepine, classified as an atypical antipsychotic agent. It binds several types of central nervous system receptors, and displays a unique pharmacological profile. Clozapine is a serotonin antagonist, with strong binding to 5-HT 2A/2C receptor subtype. It also displays strong affinity to several dopaminergic receptors, but shows only weak antagonism at the dopamine D2 receptor, a receptor commonly thought to modulate neuroleptic activity. Agranulocytosis is a major adverse effect associated with administration of this agent.  

>  <Pathways>
Neuroscience

>  <Target>
Histamine Receptor antagonist;5-HT receptor antagonist;AChR antagonist;Adrenergic Receptor agonist ;Dopamine Receptor antagonist

>  <Receptor>
Histamine receptor;5-HT Receptor;Muscarinic AChR;?-adrenergic receptor;Dopamine receptor

>  <Reference>
1. Brunello N, et al. Neuropsychopharmacology, 1995, 13(3), 177-213.

$$$$
T0458
  Mrv1561503291623562D          

 25 27  0  0  0  0            999 V2000
    3.2789    1.2375    0.0000 C   0  0  0  0  0  0  0  0  0  0  0  0
    3.9934    0.8250    0.0000 C   0  0  0  0  0  0  0  0  0  0  0  0
    3.9934    0.0000    0.0000 C   0  0  0  0  0  0  0  0  0  0  0  0
    3.2789   -0.4125    0.0000 C   0  0  0  0  0  0  0  0  0  0  0  0
    2.5645   -0.0000    0.0000 C   0  0  0  0  0  0  0  0  0  0  0  0
    2.5645    0.8250    0.0000 C   0  0  0  0  0  0  0  0  0  0  0  0
    1.7798    1.0799    0.0000 N   0  0  0  0  0  0  0  0  0  0  0  0
    1.2949    0.4125    0.0000 C   0  0  0  0  0  0  0  0  0  0  0  0
    1.7798   -0.2549    0.0000 C   0  0  0  0  0  0  0  0  0  0  0  0
    1.5249   -1.0396    0.0000 C   0  0  0  0  0  0  0  0  0  0  0  0
    2.0769   -1.6527    0.0000 C   0  0  0  0  0  0  0  0  0  0  0  0
    2.8839   -1.4811    0.0000 O   0  0  0  0  0  0  0  0  0  0  0  0
    1.8220   -2.4373    0.0000 O   0  0  0  0  0  0  0  0  0  0  0  0
    0.4699    0.4125    0.0000 C   0  0  0  0  0  0  0  0  0  0  0  0
    1.5249    1.8646    0.0000 C   0  0  0  0  0  0  0  0  0  0  0  0
    0.7179    2.0361    0.0000 C   0  0  0  0  0  0  0  0  0  0  0  0
    0.1659    1.4230    0.0000 C   0  0  0  0  0  0  0  0  0  0  0  0
   -0.6411    1.5945    0.0000 C   0  0  0  0  0  0  0  0  0  0  0  0
   -0.8960    2.3791    0.0000 C   0  0  0  0  0  0  0  0  0  0  0  0
   -1.7030    2.5507    0.0000 Cl  0  0  0  0  0  0  0  0  0  0  0  0
   -0.3440    2.9922    0.0000 C   0  0  0  0  0  0  0  0  0  0  0  0
    0.4630    2.8207    0.0000 C   0  0  0  0  0  0  0  0  0  0  0  0
    2.0769    2.4777    0.0000 O   0  0  0  0  0  0  0  0  0  0  0  0
    4.7079   -0.4125    0.0000 O   0  0  0  0  0  0  0  0  0  0  0  0
    5.4223    0.0000    0.0000 C   0  0  0  0  0  0  0  0  0  0  0  0
  1  2  2  0  0  0  0
  2  3  1  0  0  0  0
  3  4  2  0  0  0  0
  4  5  1  0  0  0  0
  5  6  2  0  0  0  0
  1  6  1  0  0  0  0
  6  7  1  0  0  0  0
  7  8  1  0  0  0  0
  8  9  2  0  0  0  0
  5  9  1  0  0  0  0
  9 10  1  0  0  0  0
 10 11  1  0  0  0  0
 11 12  1  0  0  0  0
 11 13  2  0  0  0  0
  8 14  1  0  0  0  0
  7 15  1  0  0  0  0
 15 16  1  0  0  0  0
 16 17  2  0  0  0  0
 17 18  1  0  0  0  0
 18 19  2  0  0  0  0
 19 20  1  0  0  0  0
 19 21  1  0  0  0  0
 21 22  2  0  0  0  0
 16 22  1  0  0  0  0
 15 23  2  0  0  0  0
  3 24  1  0  0  0  0
 24 25  1  0  0  0  0
M  END
>  <Name>
Indometacin

>  <CAS>
53-86-1

>  <Formula>
C19H16ClNO4

>  <MolWt>
357.79 

>  <Bioactivity>
Indomethacin is a non-steroidal antiinflammatory agent (NSAIA) with antiinflammatory, analgesic and antipyretic activity. Its pharmacological effect is thought to be mediated through inhibition of the enzyme cyclooxygenase (COX), the enzyme responsible for catalyzes the rate-limiting step in prostaglandin synthesis via the arachidonic acid pathway.

>  <Pathways>
Neuroscience

>  <Target>
COX inhibitor;PPAR agonist

>  <Receptor>
Prostaglandin G/H synthase 1,2;PTGR1;PPAR?;PPAR?

>  <Reference>
1. Mitchell JA, et al. Proc Natl Acad Sci U S A. 1993, 90(24), 11693-11697.

$$$$
38194-50-2
  Mrv1561503291623562D          

 25 27  0  0  0  0            999 V2000
    3.2789    1.2375    0.0000 C   0  0  0  0  0  0  0  0  0  0  0  0
    3.9934    0.8250    0.0000 C   0  0  0  0  0  0  0  0  0  0  0  0
    3.9934    0.0000    0.0000 C   0  0  0  0  0  0  0  0  0  0  0  0
    3.2789   -0.4125    0.0000 C   0  0  0  0  0  0  0  0  0  0  0  0
    2.5645   -0.0000    0.0000 C   0  0  0  0  0  0  0  0  0  0  0  0
    2.5645    0.8250    0.0000 C   0  0  0  0  0  0  0  0  0  0  0  0
    1.7798    1.0799    0.0000 C   0  0  0  0  0  0  0  0  0  0  0  0
    1.2949    0.4125    0.0000 C   0  0  0  0  0  0  0  0  0  0  0  0
    1.7798   -0.2549    0.0000 C   0  0  0  0  0  0  0  0  0  0  0  0
    1.5249   -1.0396    0.0000 C   0  0  0  0  0  0  0  0  0  0  0  0
    2.0769   -1.6527    0.0000 C   0  0  0  0  0  0  0  0  0  0  0  0
    1.8220   -2.4373    0.0000 O   0  0  0  0  0  0  0  0  0  0  0  0
    2.8839   -1.4811    0.0000 O   0  0  0  0  0  0  0  0  0  0  0  0
    0.4699    0.4125    0.0000 C   0  0  0  0  0  0  0  0  0  0  0  0
    1.5249    1.8646    0.0000 C   0  0  0  0  0  0  0  0  0  0  0  0
    2.0769    2.4777    0.0000 C   0  0  0  0  0  0  0  0  0  0  0  0
    1.8220    3.2623    0.0000 C   0  0  0  0  0  0  0  0  0  0  0  0
    2.3740    3.8754    0.0000 C   0  0  0  0  0  0  0  0  0  0  0  0
    3.1810    3.7038    0.0000 C   0  0  0  0  0  0  0  0  0  0  0  0
    3.7330    4.3169    0.0000 S   0  0  0  0  0  0  0  0  0  0  0  0
    3.4781    5.1016    0.0000 C   0  0  0  0  0  0  0  0  0  0  0  0
    4.5400    4.1454    0.0000 O   0  0  0  0  0  0  0  0  0  0  0  0
    3.4359    2.9192    0.0000 C   0  0  0  0  0  0  0  0  0  0  0  0
    2.8839    2.3061    0.0000 C   0  0  0  0  0  0  0  0  0  0  0  0
    4.7079   -0.4125    0.0000 F   0  0  0  0  0  0  0  0  0  0  0  0
  1  2  2  0  0  0  0
  2  3  1  0  0  0  0
  3  4  2  0  0  0  0
  4  5  1  0  0  0  0
  5  6  2  0  0  0  0
  1  6  1  0  0  0  0
  6  7  1  0  0  0  0
  7  8  1  0  0  0  0
  8  9  2  0  0  0  0
  5  9  1  0  0  0  0
  9 10  1  0  0  0  0
 10 11  1  0  0  0  0
 11 12  1  0  0  0  0
 11 13  2  0  0  0  0
  8 14  1  0  0  0  0
  7 15  2  0  0  0  0
 15 16  1  0  0  0  0
 16 17  2  0  0  0  0
 17 18  1  0  0  0  0
 18 19  2  0  0  0  0
 19 20  1  0  0  0  0
 20 21  1  0  0  0  0
 20 22  2  0  0  0  0
 19 23  1  0  0  0  0
 23 24  2  0  0  0  0
 16 24  1  0  0  0  0
  3 25  1  0  0  0  0
M  END
>  <Name>
Sulindac

>  <CAS>
38194-50-2

>  <Formula>
C20H17FO3S

>  <MolWt>
356.41 

>  <Bioactivity>
Sulindac is a nonsteroidal anti-inflammatory agent (NSAIA) of the arylalkanoic acid class that is marketed in the U.S. by Merck as Clinoril. Like other NSAIAs, it may be used in the treatment of acute or chronic inflammatory conditions. Sulindac is a prodrug, derived from sulfinylindene, that is converted in vivo to an active sulfide compound by liver enzymes. The sulfide metabolite then undergoes enterohepatic circulation; it is excreted in the bile and then reabsorbed from the intestine. This is thought to help maintain constant blood levels with reduced gastrointestinal side effects. Some studies have shown sulindac to be relatively less irritating to the stomach than other NSAIA’s except for drugs of the cyclooxygenase-2 (COX-2) inhibitor class. The exact mechanism of its NSAIA properties is unknown, but it is thought to act on enzymes COX-1 and COX-2, inhibiting prostaglandin synthesis.

>  <Pathways>
Neuroscience

>  <Target>
COX inhibitor

>  <Receptor>
Prostaglandin G/H synthase

>  <Reference>
1. Kamath-Rayne BD, et al. Am J Obstet Gynecol. 2015 Jan; 212(1):96.e1-7. 

$$$$
637-58-1
  Mrv1561503291623562D          

 23 22  0  0  0  0            999 V2000
    0.4125    0.0000    0.0000 H   0  3  0  0  0  0  0  0  0  0  0  0
    7.0565    0.4321    0.0000 C   0  0  0  0  0  0  0  0  0  0  0  0
    6.3420    0.8446    0.0000 C   0  0  0  0  0  0  0  0  0  0  0  0
    5.6275    0.4321    0.0000 O   0  0  0  0  0  0  0  0  0  0  0  0
    5.6275   -0.3929    0.0000 C   0  0  0  0  0  0  0  0  0  0  0  0
    4.9131   -0.8054    0.0000 C   0  0  0  0  0  0  0  0  0  0  0  0
    4.9131   -1.6304    0.0000 C   0  0  0  0  0  0  0  0  0  0  0  0
    4.1986   -2.0429    0.0000 N   0  0  0  0  0  0  0  0  0  0  0  0
    4.1986   -2.8679    0.0000 C   0  0  0  0  0  0  0  0  0  0  0  0
    3.4841   -3.2804    0.0000 C   0  0  0  0  0  0  0  0  0  0  0  0
    2.7696   -2.8679    0.0000 O   0  0  0  0  0  0  0  0  0  0  0  0
    2.7696   -2.0429    0.0000 C   0  0  0  0  0  0  0  0  0  0  0  0
    3.4841   -1.6304    0.0000 C   0  0  0  0  0  0  0  0  0  0  0  0
    6.3420    1.6696    0.0000 C   0  0  0  0  0  0  0  0  0  0  0  0
    7.0565    2.0821    0.0000 C   0  0  0  0  0  0  0  0  0  0  0  0
    7.7709    1.6696    0.0000 C   0  0  0  0  0  0  0  0  0  0  0  0
    7.7709    0.8446    0.0000 C   0  0  0  0  0  0  0  0  0  0  0  0
    8.4854    2.0821    0.0000 O   0  0  0  0  0  0  0  0  0  0  0  0
    9.1999    1.6696    0.0000 C   0  0  0  0  0  0  0  0  0  0  0  0
    9.9144    2.0821    0.0000 C   0  0  0  0  0  0  0  0  0  0  0  0
   10.6288    1.6696    0.0000 C   0  0  0  0  0  0  0  0  0  0  0  0
   11.3433    2.0821    0.0000 C   0  0  0  0  0  0  0  0  0  0  0  0
   -0.4125    0.0000    0.0000 Cl  0  5  0  0  0  0  0  0  0  0  0  0
  2  3  2  0  0  0  0
  3  4  1  0  0  0  0
  4  5  1  0  0  0  0
  5  6  1  0  0  0  0
  6  7  1  0  0  0  0
  7  8  1  0  0  0  0
  8  9  1  0  0  0  0
  9 10  1  0  0  0  0
 10 11  1  0  0  0  0
 11 12  1  0  0  0  0
 12 13  1  0  0  0  0
  8 13  1  0  0  0  0
  3 14  1  0  0  0  0
 14 15  2  0  0  0  0
 15 16  1  0  0  0  0
 16 17  2  0  0  0  0
  2 17  1  0  0  0  0
 16 18  1  0  0  0  0
 18 19  1  0  0  0  0
 19 20  1  0  0  0  0
 20 21  1  0  0  0  0
 21 22  1  0  0  0  0
M  CHG  2   1   1  23  -1
M  END
>  <Name>
Pramoxine HCl

>  <CAS>
637-58-1

>  <Formula>
C17H27NO37 HCl

>  <MolWt>
329.86 

>  <Bioactivity>
Pramoxine is a topical local anesthetic that has been shown to have antipruritic properties.

>  <Pathways>
Membrane Transporter/Ion Channel

>  <Target>
Sodium Channel inhibitor

>  <Receptor>
Sodium Channel

>  <Reference>
1. Ramadan NK, Merey HA. Acta Chim Slov. 2012 Dec; 59(4):870-8. 

$$$$
23142-01-0
  Mrv1561503291623562D          

 37 37  0  0  0  0            999 V2000
   -3.1573    0.2141    0.0000 C   0  0  0  0  0  0  0  0  0  0  0  0
   -2.3401    0.1007    0.0000 C   0  0  0  0  0  0  0  0  0  0  0  0
   -1.8333    0.7517    0.0000 C   0  0  0  0  0  0  0  0  0  0  0  0
   -1.2389    0.1797    0.0000 C   0  0  0  0  0  0  0  0  0  0  0  0
   -0.4462    0.4085    0.0000 O   0  0  0  0  0  0  0  0  0  0  0  0
    0.1482   -0.1635    0.0000 C   0  0  0  0  0  0  0  0  0  0  0  0
    0.9409    0.0653    0.0000 C   0  0  0  0  0  0  0  0  0  0  0  0
    1.5354   -0.5068    0.0000 O   0  0  0  0  0  0  0  0  0  0  0  0
    2.3280   -0.2780    0.0000 C   0  0  0  0  0  0  0  0  0  0  0  0
    2.9225   -0.8500    0.0000 C   0  0  0  0  0  0  0  0  0  0  0  0
    3.7151   -0.6212    0.0000 N   0  0  0  0  0  0  0  0  0  0  0  0
    4.3096   -1.1932    0.0000 C   0  0  0  0  0  0  0  0  0  0  0  0
    5.1022   -0.9644    0.0000 C   0  0  0  0  0  0  0  0  0  0  0  0
    3.9133    0.1797    0.0000 C   0  0  0  0  0  0  0  0  0  0  0  0
    4.7059    0.4085    0.0000 C   0  0  0  0  0  0  0  0  0  0  0  0
   -1.4370   -0.6212    0.0000 O   0  0  0  0  0  0  0  0  0  0  0  0
   -2.5338    1.1876    0.0000 C   0  0  0  0  0  0  0  0  0  0  0  0
   -2.3356    1.9885    0.0000 C   0  0  0  0  0  0  0  0  0  0  0  0
   -1.5127    2.0475    0.0000 C   0  0  0  0  0  0  0  0  0  0  0  0
   -1.2023    1.2831    0.0000 C   0  0  0  0  0  0  0  0  0  0  0  0
   -2.0297   -0.6637    0.0000 C   0  0  0  0  0  0  0  0  0  0  0  0
   -2.5364   -1.3147    0.0000 C   0  0  0  0  0  0  0  0  0  0  0  0
   -3.3536   -1.2013    0.0000 C   0  0  0  0  0  0  0  0  0  0  0  0
   -3.6640   -0.4370    0.0000 C   0  0  0  0  0  0  0  0  0  0  0  0
    8.6379   -0.4629    0.0000 C   0  0  0  0  0  0  0  0  0  0  0  0
    8.2254    0.2516    0.0000 C   0  0  0  0  0  0  0  0  0  0  0  0
    8.9399    0.6641    0.0000 C   0  0  0  0  0  0  0  0  0  0  0  0
    9.6544    0.2516    0.0000 C   0  0  0  0  0  0  0  0  0  0  0  0
   10.3688    0.6641    0.0000 O   0  0  0  0  0  0  0  0  0  0  0  0
    9.6544   -0.5734    0.0000 O   0  0  0  0  0  0  0  0  0  0  0  0
    7.8129    0.9660    0.0000 C   0  0  0  0  0  0  0  0  0  0  0  0
    6.9879    0.9660    0.0000 O   0  0  0  0  0  0  0  0  0  0  0  0
    8.2254    1.6805    0.0000 O   0  0  0  0  0  0  0  0  0  0  0  0
    7.5110   -0.1609    0.0000 O   0  0  0  0  0  0  0  0  0  0  0  0
    8.2254   -1.1774    0.0000 C   0  0  0  0  0  0  0  0  0  0  0  0
    8.6379   -1.8918    0.0000 O   0  0  0  0  0  0  0  0  0  0  0  0
    7.4004   -1.1774    0.0000 O   0  0  0  0  0  0  0  0  0  0  0  0
  1  2  2  0  0  0  0
  2  3  1  0  0  0  0
  3  4  1  0  0  0  0
  4  5  1  0  0  0  0
  5  6  1  0  0  0  0
  6  7  1  0  0  0  0
  7  8  1  0  0  0  0
  8  9  1  0  0  0  0
  9 10  1  0  0  0  0
 10 11  1  0  0  0  0
 11 12  1  0  0  0  0
 12 13  1  0  0  0  0
 11 14  1  0  0  0  0
 14 15  1  0  0  0  0
  4 16  2  0  0  0  0
  3 17  1  0  0  0  0
 17 18  1  0  0  0  0
 18 19  1  0  0  0  0
 19 20  1  0  0  0  0
  3 20  1  0  0  0  0
  2 21  1  0  0  0  0
 21 22  2  0  0  0  0
 22 23  1  0  0  0  0
 23 24  2  0  0  0  0
  1 24  1  0  0  0  0
 25 26  1  0  0  0  0
 26 27  1  0  0  0  0
 27 28  1  0  0  0  0
 28 29  1  0  0  0  0
 28 30  2  0  0  0  0
 26 31  1  0  0  0  0
 31 32  1  0  0  0  0
 31 33  2  0  0  0  0
 26 34  1  0  0  0  0
 25 35  1  0  0  0  0
 35 36  1  0  0  0  0
 35 37  2  0  0  0  0
M  END
>  <Name>
Carbetapentane citrate

>  <CAS>
23142-01-0

>  <Formula>
C20H31NO37C6H8O7

>  <MolWt>
525.59 

>  <Bioactivity>
Pentoxyverine Citrate is an antitussive (cough suppressant) commonly used for cough associated with illnesses like common cold.

>  <Pathways>
Neuroscience

>  <Target>
Others

>  <Receptor>
Others

>  <Reference>
1. Lin MQ, et al. Nan Fang Yi Ke Da Xue Xue Bao. 2010 Jul; 30(7):1621-3. 

$$$$
169590-42-5
  Mrv1561503291623562D          

 26 28  0  0  0  0            999 V2000
    1.3819   -1.7224    0.0000 C   0  0  0  0  0  0  0  0  0  0  0  0
    1.1270   -2.5070    0.0000 C   0  0  0  0  0  0  0  0  0  0  0  0
    0.3020   -2.5070    0.0000 N   0  0  0  0  0  0  0  0  0  0  0  0
   -0.1830   -3.1745    0.0000 C   0  0  0  0  0  0  0  0  0  0  0  0
    0.1526   -3.9282    0.0000 C   0  0  0  0  0  0  0  0  0  0  0  0
   -0.3323   -4.5956    0.0000 C   0  0  0  0  0  0  0  0  0  0  0  0
   -1.1528   -4.5094    0.0000 C   0  0  0  0  0  0  0  0  0  0  0  0
   -1.6377   -5.1768    0.0000 S   0  0  0  0  0  0  0  0  0  0  0  0
   -2.1226   -5.8442    0.0000 N   0  0  0  0  0  0  0  0  0  0  0  0
   -0.9703   -5.6617    0.0000 O   0  0  0  0  0  0  0  0  0  0  0  0
   -2.3052   -4.6919    0.0000 O   0  0  0  0  0  0  0  0  0  0  0  0
   -1.4884   -3.7557    0.0000 C   0  0  0  0  0  0  0  0  0  0  0  0
   -1.0034   -3.0882    0.0000 C   0  0  0  0  0  0  0  0  0  0  0  0
    0.0470   -1.7224    0.0000 N   0  0  0  0  0  0  0  0  0  0  0  0
    0.7145   -1.2375    0.0000 C   0  0  0  0  0  0  0  0  0  0  0  0
    0.7145   -0.4125    0.0000 C   0  0  0  0  0  0  0  0  0  0  0  0
    0.7145    0.4125    0.0000 F   0  0  0  0  0  0  0  0  0  0  0  0
    1.5395   -0.4125    0.0000 F   0  0  0  0  0  0  0  0  0  0  0  0
   -0.1105   -0.4125    0.0000 F   0  0  0  0  0  0  0  0  0  0  0  0
    1.6119   -3.1745    0.0000 C   0  0  0  0  0  0  0  0  0  0  0  0
    2.4324   -3.0882    0.0000 C   0  0  0  0  0  0  0  0  0  0  0  0
    2.9173   -3.7557    0.0000 C   0  0  0  0  0  0  0  0  0  0  0  0
    2.5817   -4.5094    0.0000 C   0  0  0  0  0  0  0  0  0  0  0  0
    1.7613   -4.5956    0.0000 C   0  0  0  0  0  0  0  0  0  0  0  0
    1.2763   -3.9282    0.0000 C   0  0  0  0  0  0  0  0  0  0  0  0
    3.0667   -5.1768    0.0000 C   0  0  0  0  0  0  0  0  0  0  0  0
  1  2  2  0  0  0  0
  2  3  1  0  0  0  0
  3  4  1  0  0  0  0
  4  5  2  0  0  0  0
  5  6  1  0  0  0  0
  6  7  2  0  0  0  0
  7  8  1  0  0  0  0
  8  9  1  0  0  0  0
  8 10  2  0  0  0  0
  8 11  2  0  0  0  0
  7 12  1  0  0  0  0
 12 13  2  0  0  0  0
  4 13  1  0  0  0  0
  3 14  1  0  0  0  0
 14 15  2  0  0  0  0
  1 15  1  0  0  0  0
 15 16  1  0  0  0  0
 16 17  1  0  0  0  0
 16 18  1  0  0  0  0
 16 19  1  0  0  0  0
  2 20  1  0  0  0  0
 20 21  2  0  0  0  0
 21 22  1  0  0  0  0
 22 23  2  0  0  0  0
 23 24  1  0  0  0  0
 24 25  2  0  0  0  0
 20 25  1  0  0  0  0
 23 26  1  0  0  0  0
M  END
>  <Name>
Celecoxib

>  <CAS>
169590-42-5

>  <Formula>
C17H14F3N3O2S

>  <MolWt>
381.37 

>  <Bioactivity>
Celecoxib is a non-steroidal anti-inflammatory drug (NSAID) used in the treatment of osteoarthritis, rheumatoid arthritis, acute pain, painful menstruation and menstrual symptoms, and to reduce numbers of colon and rectum polyps in patients with familial adenomatous polyposis. It is marketed by Pfizer under the brand name Celebrex. In some countries, it is branded Celebra. Celecoxib is available by prescription in capsule form. 

>  <Pathways>
Neuroscience

>  <Target>
COX inhibitor

>  <Receptor>
PDPK;COX2

>  <Reference>
1. Sigthorsson G, et al. Gastroenterology. 2002 Jun; 122(7):1913-23. 

$$$$
T0717L
  Mrv1561503291623562D          

 23 25  0  0  0  0            999 V2000
   -0.0000    0.0000    0.0000 C   0  0  0  0  0  0  0  0  0  0  0  0
   -0.7145   -0.4125    0.0000 C   0  0  0  0  0  0  0  0  0  0  0  0
   -1.4289    0.0000    0.0000 F   0  0  0  0  0  0  0  0  0  0  0  0
   -0.7145   -1.2375    0.0000 C   0  0  0  0  0  0  0  0  0  0  0  0
   -0.0000   -1.6500    0.0000 N   0  0  0  0  0  0  0  0  0  0  0  0
    0.7145   -1.2375    0.0000 C   0  0  0  0  0  0  0  0  0  0  0  0
    0.7145   -0.4125    0.0000 C   0  0  0  0  0  0  0  0  0  0  0  0
    1.4289    0.0000    0.0000 C   0  0  0  0  0  0  0  0  0  0  0  0
    2.1434   -0.4125    0.0000 C   0  0  0  0  0  0  0  0  0  0  0  0
    2.1434   -1.2375    0.0000 C   0  0  0  0  0  0  0  0  0  0  0  0
    1.4289   -1.6500    0.0000 N   0  0  0  0  0  0  0  0  0  0  0  0
    1.4289   -2.4750    0.0000 C   0  0  0  0  0  0  0  0  0  0  0  0
    0.7145   -2.8875    0.0000 C   0  0  0  0  0  0  0  0  0  0  0  0
    2.8579    0.0000    0.0000 C   0  0  0  0  0  0  0  0  0  0  0  0
    3.5724   -0.4125    0.0000 O   0  0  0  0  0  0  0  0  0  0  0  0
    2.8579    0.8250    0.0000 O   0  0  0  0  0  0  0  0  0  0  0  0
    1.4289    0.8250    0.0000 O   0  0  0  0  0  0  0  0  0  0  0  0
   -1.4289   -1.6500    0.0000 N   0  0  0  0  0  0  0  0  0  0  0  0
   -1.4289   -2.4750    0.0000 C   0  0  0  0  0  0  0  0  0  0  0  0
   -2.1434   -2.8875    0.0000 C   0  0  0  0  0  0  0  0  0  0  0  0
   -2.8579   -2.4750    0.0000 N   0  0  0  0  0  0  0  0  0  0  0  0
   -2.8579   -1.6500    0.0000 C   0  0  0  0  0  0  0  0  0  0  0  0
   -2.1434   -1.2375    0.0000 C   0  0  0  0  0  0  0  0  0  0  0  0
  1  2  2  0  0  0  0
  2  3  1  0  0  0  0
  2  4  1  0  0  0  0
  4  5  2  0  0  0  0
  5  6  1  0  0  0  0
  6  7  2  0  0  0  0
  1  7  1  0  0  0  0
  7  8  1  0  0  0  0
  8  9  1  0  0  0  0
  9 10  2  0  0  0  0
 10 11  1  0  0  0  0
  6 11  1  0  0  0  0
 11 12  1  0  0  0  0
 12 13  1  0  0  0  0
  9 14  1  0  0  0  0
 14 15  1  0  0  0  0
 14 16  2  0  0  0  0
  8 17  2  0  0  0  0
  4 18  1  0  0  0  0
 18 19  1  0  0  0  0
 19 20  1  0  0  0  0
 20 21  1  0  0  0  0
 21 22  1  0  0  0  0
 22 23  1  0  0  0  0
 18 23  1  0  0  0  0
M  END
>  <Name>
Enoxacin

>  <CAS>
74011-58-8

>  <Formula>
C15H17FN4O3

>  <MolWt>
320.32 

>  <Bioactivity>
A broad-spectrum 6-fluoronaphthyridinone antibacterial agent that is structurally related to NALIDIXIC ACID.

>  <Pathways>
DNA Damage/DNA Repair

>  <Target>
Topoisomerase inhibitor

>  <Receptor>
Topoisomerase II, IV

>  <Reference>
1. Snyder RD, Cooper CS. Photochem Photobiol. 1999 Mar;69(3):288-93.

$$$$
132-69-4
  Mrv1561503291623562D          

 25 25  0  0  0  0            999 V2000
    0.4125    0.0000    0.0000 H   0  3  0  0  0  0  0  0  0  0  0  0
    5.0666   -1.0616    0.0000 C   0  0  0  0  0  0  0  0  0  0  0  0
    5.3215   -0.2770    0.0000 C   0  0  0  0  0  0  0  0  0  0  0  0
    4.9090    0.4375    0.0000 N   0  0  0  0  0  0  0  0  0  0  0  0
    5.4611    1.0506    0.0000 N   0  0  0  0  0  0  0  0  0  0  0  0
    6.2147    0.7150    0.0000 C   0  0  0  0  0  0  0  0  0  0  0  0
    6.9292    1.1275    0.0000 O   0  0  0  0  0  0  0  0  0  0  0  0
    7.6437    0.7150    0.0000 C   0  0  0  0  0  0  0  0  0  0  0  0
    8.3581    1.1275    0.0000 C   0  0  0  0  0  0  0  0  0  0  0  0
    9.0726    0.7150    0.0000 C   0  0  0  0  0  0  0  0  0  0  0  0
    9.7871    1.1275    0.0000 N   0  0  0  0  0  0  0  0  0  0  0  0
   10.5016    0.7150    0.0000 C   0  0  0  0  0  0  0  0  0  0  0  0
    9.7871    1.9525    0.0000 C   0  0  0  0  0  0  0  0  0  0  0  0
    6.1285   -0.1054    0.0000 C   0  0  0  0  0  0  0  0  0  0  0  0
    6.6805   -0.7185    0.0000 C   0  0  0  0  0  0  0  0  0  0  0  0
    6.4256   -1.5032    0.0000 C   0  0  0  0  0  0  0  0  0  0  0  0
    5.6186   -1.6747    0.0000 C   0  0  0  0  0  0  0  0  0  0  0  0
    4.0885    0.5237    0.0000 C   0  0  0  0  0  0  0  0  0  0  0  0
    3.6036   -0.1437    0.0000 C   0  0  0  0  0  0  0  0  0  0  0  0
    3.9392   -0.8974    0.0000 C   0  0  0  0  0  0  0  0  0  0  0  0
    3.4543   -1.5648    0.0000 C   0  0  0  0  0  0  0  0  0  0  0  0
    2.6338   -1.4786    0.0000 C   0  0  0  0  0  0  0  0  0  0  0  0
    2.2982   -0.7249    0.0000 C   0  0  0  0  0  0  0  0  0  0  0  0
    2.7831   -0.0575    0.0000 C   0  0  0  0  0  0  0  0  0  0  0  0
   -0.4125    0.0000    0.0000 Cl  0  5  0  0  0  0  0  0  0  0  0  0
  2  3  2  0  0  0  0
  3  4  1  0  0  0  0
  4  5  1  0  0  0  0
  5  6  2  0  0  0  0
  6  7  1  0  0  0  0
  7  8  1  0  0  0  0
  8  9  1  0  0  0  0
  9 10  1  0  0  0  0
 10 11  1  0  0  0  0
 11 12  1  0  0  0  0
 11 13  1  0  0  0  0
  6 14  1  0  0  0  0
  3 14  1  0  0  0  0
 14 15  2  0  0  0  0
 15 16  1  0  0  0  0
 16 17  2  0  0  0  0
  2 17  1  0  0  0  0
  4 18  1  0  0  0  0
 18 19  1  0  0  0  0
 19 20  2  0  0  0  0
 20 21  1  0  0  0  0
 21 22  2  0  0  0  0
 22 23  1  0  0  0  0
 23 24  2  0  0  0  0
 19 24  1  0  0  0  0
M  CHG  2   1   1  25  -1
M  END
>  <Name>
Benzydamine HCl

>  <CAS>
132-69-4

>  <Formula>
C19H23N3O.HCl

>  <MolWt>
345.87 

>  <Bioactivity>
A benzyl-indazole having analgesic, antipyretic, and anti-inflammatory effects. It is used to reduce post-surgical and post-traumatic pain and edema and to promote healing. It is also used topically in treatment of RHEUMATIC DISEASES and INFLAMMATION of the mouth and throat. 

>  <Pathways>
Neuroscience

>  <Target>
COX inhibitor

>  <Receptor>
Prostaglandin G/H synthase

>  <Reference>
1. Epstein JB, et al. Int J Radiat Oncol Biol Phys, 1989, 16(6), 1571-1575.

$$$$
144060-53-7
  Mrv1561503291623562D          

 22 23  0  0  0  0            999 V2000
    2.0367    1.1759    0.0000 C   0  0  0  0  0  0  0  0  0  0  0  0
    2.0367    2.0009    0.0000 C   0  0  0  0  0  0  0  0  0  0  0  0
    2.7512    2.4134    0.0000 C   0  0  0  0  0  0  0  0  0  0  0  0
    3.4656    2.0009    0.0000 C   0  0  0  0  0  0  0  0  0  0  0  0
    3.4656    1.1759    0.0000 C   0  0  0  0  0  0  0  0  0  0  0  0
    2.7512    0.7634    0.0000 C   0  0  0  0  0  0  0  0  0  0  0  0
    2.7512   -0.0616    0.0000 C   0  0  0  0  0  0  0  0  0  0  0  0
    3.4186   -0.5465    0.0000 N   0  0  0  0  0  0  0  0  0  0  0  0
    3.1637   -1.3312    0.0000 C   0  0  0  0  0  0  0  0  0  0  0  0
    2.3387   -1.3312    0.0000 C   0  0  0  0  0  0  0  0  0  0  0  0
    2.0837   -0.5465    0.0000 S   0  0  0  0  0  0  0  0  0  0  0  0
    1.8538   -1.9986    0.0000 C   0  0  0  0  0  0  0  0  0  0  0  0
    2.1893   -2.7523    0.0000 O   0  0  0  0  0  0  0  0  0  0  0  0
    1.0333   -1.9124    0.0000 O   0  0  0  0  0  0  0  0  0  0  0  0
    3.6486   -1.9986    0.0000 C   0  0  0  0  0  0  0  0  0  0  0  0
    2.7512    3.2384    0.0000 O   0  0  0  0  0  0  0  0  0  0  0  0
    2.0367    3.6509    0.0000 C   0  0  0  0  0  0  0  0  0  0  0  0
    2.0367    4.4759    0.0000 C   0  0  0  0  0  0  0  0  0  0  0  0
    1.3222    4.8884    0.0000 C   0  0  0  0  0  0  0  0  0  0  0  0
    2.7512    4.8884    0.0000 C   0  0  0  0  0  0  0  0  0  0  0  0
    1.3222    2.4134    0.0000 C   0  0  0  0  0  0  0  0  0  0  0  0
    0.6078    2.8259    0.0000 N   0  0  0  0  0  0  0  0  0  0  0  0
  1  2  2  0  0  0  0
  2  3  1  0  0  0  0
  3  4  2  0  0  0  0
  4  5  1  0  0  0  0
  5  6  2  0  0  0  0
  1  6  1  0  0  0  0
  6  7  1  0  0  0  0
  7  8  2  0  0  0  0
  8  9  1  0  0  0  0
  9 10  2  0  0  0  0
 10 11  1  0  0  0  0
  7 11  1  0  0  0  0
 10 12  1  0  0  0  0
 12 13  2  0  0  0  0
 12 14  1  0  0  0  0
  9 15  1  0  0  0  0
  3 16  1  0  0  0  0
 16 17  1  0  0  0  0
 17 18  1  0  0  0  0
 18 19  1  0  0  0  0
 18 20  1  0  0  0  0
  2 21  1  0  0  0  0
 21 22  3  0  0  0  0
M  END
>  <Name>
Febuxostat

>  <CAS>
144060-53-7

>  <Formula>
C16H16N2O3S

>  <MolWt>
316.37 

>  <Bioactivity>
Febuxostat is a Xanthine Oxidase Inhibitor. The mechanism of action of febuxostat is as a Xanthine Oxidase Inhibitor. 

>  <Pathways>
Metabolism

>  <Target>
Xanthine Oxidase inhibitor

>  <Receptor>
Xanthine oxidase

>  <Reference>
1. Yasuhiro Takano, et al. Life Sciences, 2005 Mar 4; 76(16):1835-47

$$$$
25013-16-5
  Mrv1561503291623562D          

 13 13  0  0  0  0            999 V2000
    1.4289    0.8250    0.0000 C   0  0  0  0  0  0  0  0  0  0  0  0
    1.4289    0.0000    0.0000 C   0  0  0  0  0  0  0  0  0  0  0  0
    0.7145   -0.4125    0.0000 C   0  0  0  0  0  0  0  0  0  0  0  0
   -0.0000    0.0000    0.0000 C   0  0  0  0  0  0  0  0  0  0  0  0
   -0.0000    0.8250    0.0000 C   0  0  0  0  0  0  0  0  0  0  0  0
    0.7145    1.2375    0.0000 C   0  0  0  0  0  0  0  0  0  0  0  0
    0.7145    2.0625    0.0000 O   0  0  0  0  0  0  0  0  0  0  0  0
    0.0000    2.4750    0.0000 C   0  0  0  0  0  0  0  0  0  0  0  0
    0.7145   -1.2375    0.0000 O   0  0  0  0  0  0  0  0  0  0  0  0
    2.1434   -0.4125    0.0000 C   0  0  0  0  0  0  0  0  0  0  0  0
    2.8579   -0.8250    0.0000 C   0  0  0  0  0  0  0  0  0  0  0  0
    1.7309   -1.1270    0.0000 C   0  0  0  0  0  0  0  0  0  0  0  0
    2.5559    0.3020    0.0000 C   0  0  0  0  0  0  0  0  0  0  0  0
  1  2  2  0  0  0  0
  2  3  1  0  0  0  0
  3  4  2  0  0  0  0
  4  5  1  0  0  0  0
  5  6  2  0  0  0  0
  1  6  1  0  0  0  0
  6  7  1  0  0  0  0
  7  8  1  0  0  0  0
  3  9  1  0  0  0  0
  2 10  1  0  0  0  0
 10 11  1  0  0  0  0
 10 12  1  0  0  0  0
 10 13  1  0  0  0  0
M  END
>  <Name>
Butylated hydroxyanisole

>  <CAS>
25013-16-5

>  <Formula>
C11H16O2

>  <MolWt>
180.25 

>  <Bioactivity>
Butylated hydroxyanisole (BHA) is an antioxidant consisting of a mixture of two isomeric organic compounds, 2-tert-butyl-4-hydroxyanisole and 3-tert-butyl-4-hydroxyanisole. 

>  <Pathways>
Others

>  <Target>
Others

>  <Receptor>
Others

>  <Reference>
1. Lam LK, et al. J Med Chem. 1979 May; 22(5):569-71.

$$$$
4618-18-2
  Mrv1561503291623562D          

 23 24  0  0  1  0            999 V2000
    2.0367   -1.2991    0.0000 C   0  0  1  0  0  0  0  0  0  0  0  0
    2.7041   -1.7840    0.0000 C   0  0  2  0  0  0  0  0  0  0  0  0
    2.4492   -2.5687    0.0000 C   0  0  2  0  0  0  0  0  0  0  0  0
    2.9341   -3.2361    0.0000 O   0  0  0  0  0  0  0  0  0  0  0  0
    2.5986   -3.9898    0.0000 C   0  0  1  0  0  0  0  0  0  0  0  0
    3.0835   -4.6572    0.0000 C   0  0  1  0  0  0  0  0  0  0  0  0
    2.7479   -5.4109    0.0000 C   0  0  2  0  0  0  0  0  0  0  0  0
    1.9275   -5.4971    0.0000 C   0  0  2  0  0  0  0  0  0  0  0  0
    1.4425   -4.8297    0.0000 C   0  0  2  0  0  0  0  0  0  0  0  0
    1.7781   -4.0760    0.0000 O   0  0  0  0  0  0  0  0  0  0  0  0
    0.6221   -4.9159    0.0000 C   0  0  0  0  0  0  0  0  0  0  0  0
    0.2865   -5.6696    0.0000 O   0  0  0  0  0  0  0  0  0  0  0  0
    1.5919   -6.2508    0.0000 O   0  0  0  0  0  0  0  0  0  0  0  0
    3.2329   -6.0783    0.0000 O   0  0  0  0  0  0  0  0  0  0  0  0
    3.9040   -4.5710    0.0000 O   0  0  0  0  0  0  0  0  0  0  0  0
    1.6242   -2.5687    0.0000 C   0  0  2  0  0  0  0  0  0  0  0  0
    1.3693   -1.7840    0.0000 O   0  0  0  0  0  0  0  0  0  0  0  0
    1.1393   -3.2361    0.0000 C   0  0  0  0  0  0  0  0  0  0  0  0
    0.3188   -3.1499    0.0000 O   0  0  0  0  0  0  0  0  0  0  0  0
    3.4888   -1.5291    0.0000 O   0  0  0  0  0  0  0  0  0  0  0  0
    2.4417   -0.5804    0.0000 O   0  0  0  0  0  0  0  0  0  0  0  0
    1.6317   -0.5804    0.0000 C   0  0  0  0  0  0  0  0  0  0  0  0
    0.8068   -0.5717    0.0000 O   0  0  0  0  0  0  0  0  0  0  0  0
  1  2  1  0  0  0  0
  2  3  1  0  0  0  0
  3  4  1  6  0  0  0
  5  4  1  1  0  0  0
  5  6  1  0  0  0  0
  6  7  1  0  0  0  0
  7  8  1  0  0  0  0
  8  9  1  0  0  0  0
  9 10  1  0  0  0  0
  5 10  1  0  0  0  0
  9 11  1  1  0  0  0
 11 12  1  0  0  0  0
  8 13  1  1  0  0  0
  7 14  1  1  0  0  0
  6 15  1  6  0  0  0
  3 16  1  0  0  0  0
 16 17  1  0  0  0  0
  1 17  1  0  0  0  0
 16 18  1  1  0  0  0
 18 19  1  0  0  0  0
  2 20  1  1  0  0  0
  1 21  1  1  0  0  0
  1 22  1  6  0  0  0
 22 23  1  0  0  0  0
M  END
>  <Name>
Lactulose

>  <CAS>
4618-18-2

>  <Formula>
C12H22O11

>  <MolWt>
342.30 

>  <Bioactivity>
A synthetic disaccharide used in the treatment of constipation and hepatic encephalopathy. It has also been used in the diagnosis of gastrointestinal disorders.  

>  <Pathways>
Others

>  <Target>
Others

>  <Receptor>
?-gal

>  <Reference>
1. Algieri F, et al. J Agric Food Chem. 2014 May 14; 62(19):4285-97. 

$$$$
66-76-2
  Mrv1561503291623562D          

 25 28  0  0  0  0            999 V2000
   -3.5724   -0.4125    0.0000 C   0  0  0  0  0  0  0  0  0  0  0  0
   -3.5724   -1.2375    0.0000 C   0  0  0  0  0  0  0  0  0  0  0  0
   -2.8579   -1.6500    0.0000 C   0  0  0  0  0  0  0  0  0  0  0  0
   -2.1434   -1.2375    0.0000 C   0  0  0  0  0  0  0  0  0  0  0  0
   -2.1434   -0.4125    0.0000 C   0  0  0  0  0  0  0  0  0  0  0  0
   -2.8579   -0.0000    0.0000 C   0  0  0  0  0  0  0  0  0  0  0  0
   -1.4289   -0.0000    0.0000 C   0  0  0  0  0  0  0  0  0  0  0  0
   -0.7145   -0.4125    0.0000 C   0  0  0  0  0  0  0  0  0  0  0  0
   -0.7145   -1.2375    0.0000 C   0  0  0  0  0  0  0  0  0  0  0  0
   -0.0000   -1.6500    0.0000 O   0  0  0  0  0  0  0  0  0  0  0  0
   -1.4289   -1.6500    0.0000 O   0  0  0  0  0  0  0  0  0  0  0  0
   -0.0000    0.0000    0.0000 C   0  0  0  0  0  0  0  0  0  0  0  0
    0.7145   -0.4125    0.0000 C   0  0  0  0  0  0  0  0  0  0  0  0
    1.4289   -0.0000    0.0000 C   0  0  0  0  0  0  0  0  0  0  0  0
    2.1434   -0.4125    0.0000 C   0  0  0  0  0  0  0  0  0  0  0  0
    2.8579   -0.0000    0.0000 C   0  0  0  0  0  0  0  0  0  0  0  0
    3.5724   -0.4125    0.0000 C   0  0  0  0  0  0  0  0  0  0  0  0
    3.5724   -1.2375    0.0000 C   0  0  0  0  0  0  0  0  0  0  0  0
    2.8579   -1.6500    0.0000 C   0  0  0  0  0  0  0  0  0  0  0  0
    2.1434   -1.2375    0.0000 C   0  0  0  0  0  0  0  0  0  0  0  0
    1.4289   -1.6500    0.0000 O   0  0  0  0  0  0  0  0  0  0  0  0
    0.7145   -1.2375    0.0000 C   0  0  0  0  0  0  0  0  0  0  0  0
    0.3789   -1.9912    0.0000 O   0  0  0  0  0  0  0  0  0  0  0  0
    1.4289    0.8250    0.0000 O   0  0  0  0  0  0  0  0  0  0  0  0
   -1.4289    0.8250    0.0000 O   0  0  0  0  0  0  0  0  0  0  0  0
  1  2  2  0  0  0  0
  2  3  1  0  0  0  0
  3  4  2  0  0  0  0
  4  5  1  0  0  0  0
  5  6  2  0  0  0  0
  1  6  1  0  0  0  0
  5  7  1  0  0  0  0
  7  8  2  0  0  0  0
  8  9  1  0  0  0  0
  9 10  2  0  0  0  0
  9 11  1  0  0  0  0
  4 11  1  0  0  0  0
  8 12  1  0  0  0  0
 12 13  1  0  0  0  0
 13 14  2  0  0  0  0
 14 15  1  0  0  0  0
 15 16  2  0  0  0  0
 16 17  1  0  0  0  0
 17 18  2  0  0  0  0
 18 19  1  0  0  0  0
 19 20  2  0  0  0  0
 15 20  1  0  0  0  0
 20 21  1  0  0  0  0
 21 22  1  0  0  0  0
 13 22  1  0  0  0  0
 22 23  2  0  0  0  0
 14 24  1  0  0  0  0
  7 25  1  0  0  0  0
M  END
>  <Name>
Dicumarol

>  <CAS>
66-76-2

>  <Formula>
C19H12O6

>  <MolWt>
336.29 

>  <Bioactivity>
An oral anticoagulant that interferes with the metabolism of vitamin K. It is also used in biochemical experiments as an inhibitor of reductases. 

>  <Pathways>
Metabolism

>  <Target>
Dehydrogenase inhibitor;QOR inhibitor ;VKOR inhibitor

>  <Receptor>
NAD(P)H DH1;QOR;VKOR

>  <Reference>
1. Jaiswal AK. Arch Biochem Biophys. 2000, 375(1):62-8.

$$$$
66215-27-8
  Mrv1561503291623562D          

 12 13  0  0  0  0            999 V2000
   -1.1270   -0.1743    0.0000 C   0  0  0  0  0  0  0  0  0  0  0  0
   -1.8414   -0.5868    0.0000 N   0  0  0  0  0  0  0  0  0  0  0  0
   -2.5559   -0.1743    0.0000 C   0  0  0  0  0  0  0  0  0  0  0  0
   -2.5559    0.6507    0.0000 N   0  0  0  0  0  0  0  0  0  0  0  0
   -1.8414    1.0632    0.0000 C   0  0  0  0  0  0  0  0  0  0  0  0
   -1.1270    0.6507    0.0000 N   0  0  0  0  0  0  0  0  0  0  0  0
   -1.8414    1.8882    0.0000 N   0  0  0  0  0  0  0  0  0  0  0  0
   -3.2704   -0.5868    0.0000 N   0  0  0  0  0  0  0  0  0  0  0  0
   -0.4125   -0.5868    0.0000 N   0  0  0  0  0  0  0  0  0  0  0  0
   -0.4125   -1.4118    0.0000 C   0  0  0  0  0  0  0  0  0  0  0  0
   -0.0000   -2.1263    0.0000 C   0  0  0  0  0  0  0  0  0  0  0  0
   -0.8250   -2.1263    0.0000 C   0  0  0  0  0  0  0  0  0  0  0  0
  1  2  2  0  0  0  0
  2  3  1  0  0  0  0
  3  4  2  0  0  0  0
  4  5  1  0  0  0  0
  5  6  2  0  0  0  0
  1  6  1  0  0  0  0
  5  7  1  0  0  0  0
  3  8  1  0  0  0  0
  1  9  1  0  0  0  0
  9 10  1  0  0  0  0
 10 11  1  0  0  0  0
 11 12  1  0  0  0  0
 10 12  1  0  0  0  0
M  END
>  <Name>
Cyromazine

>  <CAS>
66215-27-8

>  <Formula>
C6H10N6

>  <MolWt>
166.18 

>  <Bioactivity>
Cyromazine is a triazine insect growth regulator used as an insecticide and an acaricide.

>  <Pathways>
Others

>  <Target>
Others

>  <Receptor>
Others

>  <Reference>
1. Bel Y, et al. Arch Insect Biochem Physiol, 2000, 45(2), 69-78. 

$$$$
T0850
  Mrv1561503291623562D          

 29 28  0  0  0  0            999 V2000
   -0.2632    0.7164    0.0000 C   0  0  0  0  0  0  0  0  0  0  0  0
   -0.2632   -0.1086    0.0000 C   0  0  0  0  0  0  0  0  0  0  0  0
   -0.9777   -0.5211    0.0000 C   0  0  0  0  0  0  0  0  0  0  0  0
   -0.9777   -1.3461    0.0000 N   0  0  0  0  0  0  0  0  0  0  0  0
   -1.6922   -1.7586    0.0000 C   0  0  0  0  0  0  0  0  0  0  0  0
   -2.4066   -1.3461    0.0000 C   0  0  0  0  0  0  0  0  0  0  0  0
   -2.4066   -0.5211    0.0000 C   0  0  0  0  0  0  0  0  0  0  0  0
   -1.6922   -0.1086    0.0000 C   0  0  0  0  0  0  0  0  0  0  0  0
   -1.6922    0.7164    0.0000 C   0  0  0  0  0  0  0  0  0  0  0  0
   -0.9777    1.1289    0.0000 C   0  0  0  0  0  0  0  0  0  0  0  0
   -0.9777    1.9539    0.0000 O   0  0  0  0  0  0  0  0  0  0  0  0
   -0.2632    2.3664    0.0000 C   0  0  0  0  0  0  0  0  0  0  0  0
    0.4512   -0.5211    0.0000 N   0  0  0  0  0  0  0  0  0  0  0  0
    1.1657   -0.1086    0.0000 C   0  0  0  0  0  0  0  0  0  0  0  0
    1.8802   -0.5211    0.0000 C   0  0  0  0  0  0  0  0  0  0  0  0
    2.5947   -0.1086    0.0000 C   0  0  0  0  0  0  0  0  0  0  0  0
    3.3091   -0.5211    0.0000 C   0  0  0  0  0  0  0  0  0  0  0  0
    4.0236   -0.1086    0.0000 N   0  0  0  0  0  0  0  0  0  0  0  0
    1.1657    0.7164    0.0000 C   0  0  0  0  0  0  0  0  0  0  0  0
    6.7343   -0.8250    0.0000 O   0  0  0  0  0  0  0  0  0  0  0  0
    6.7343    0.0000    0.0000 P   0  0  0  0  0  0  0  0  0  0  0  0
    6.7343    0.8250    0.0000 O   0  0  0  0  0  0  0  0  0  0  0  0
    7.5593   -0.0000    0.0000 O   0  0  0  0  0  0  0  0  0  0  0  0
    5.9093    0.0000    0.0000 O   0  0  0  0  0  0  0  0  0  0  0  0
    0.0000   -5.0586    0.0000 O   0  0  0  0  0  0  0  0  0  0  0  0
    0.0000   -4.2336    0.0000 P   0  0  0  0  0  0  0  0  0  0  0  0
    0.0000   -3.4086    0.0000 O   0  0  0  0  0  0  0  0  0  0  0  0
    0.8250   -4.2336    0.0000 O   0  0  0  0  0  0  0  0  0  0  0  0
   -0.8250   -4.2336    0.0000 O   0  0  0  0  0  0  0  0  0  0  0  0
  1  2  2  0  0  0  0
  2  3  1  0  0  0  0
  3  4  2  0  0  0  0
  4  5  1  0  0  0  0
  5  6  2  0  0  0  0
  6  7  1  0  0  0  0
  7  8  2  0  0  0  0
  3  8  1  0  0  0  0
  8  9  1  0  0  0  0
  9 10  2  0  0  0  0
  1 10  1  0  0  0  0
 10 11  1  0  0  0  0
 11 12  1  0  0  0  0
  2 13  1  0  0  0  0
 13 14  1  0  0  0  0
 14 15  1  0  0  0  0
 15 16  1  0  0  0  0
 16 17  1  0  0  0  0
 17 18  1  0  0  0  0
 14 19  1  0  0  0  0
 20 21  2  0  0  0  0
 21 22  1  0  0  0  0
 21 23  1  0  0  0  0
 21 24  1  0  0  0  0
 25 26  2  0  0  0  0
 26 27  1  0  0  0  0
 26 28  1  0  0  0  0
 26 29  1  0  0  0  0
M  END
>  <Name>
Primaquine diphosphate

>  <CAS>
63-45-6

>  <Formula>
C15H21N3O92H3PO4

>  <MolWt>
455.34 

>  <Bioactivity>
An aminoquinoline that is given by mouth to produce a radical cure and prevent relapse of vivax and ovale malarias following treatment with a blood schizontocide. It has also been used to prevent transmission of falciparum malaria by those returning to areas where there is a potential for re-introduction of malaria. Adverse effects include anemias and GI disturbances. (From Martindale, The Extra Pharmacopeia, 30th ed, p404)  

>  <Pathways>
Microbiology & Virology

>  <Target>
Antibiotic

>  <Receptor>
Others

>  <Reference>
1. Heard CM, et al. Int J Pharm. 2003, 257(1-2):237-44. 

$$$$
66357-59-3
  Mrv1561503291623562D          

 23 21  0  0  0  0            999 V2000
    2.5992   -2.2350    0.0000 H   0  3  0  0  0  0  0  0  0  0  0  0
   -2.5808   -0.7520    0.0000 C   0  0  0  0  0  0  0  0  0  0  0  0
   -2.9933   -0.0375    0.0000 C   0  0  0  0  0  0  0  0  0  0  0  0
   -2.4413    0.5756    0.0000 O   0  0  0  0  0  0  0  0  0  0  0  0
   -1.6876    0.2400    0.0000 C   0  0  0  0  0  0  0  0  0  0  0  0
   -1.7738   -0.5805    0.0000 C   0  0  0  0  0  0  0  0  0  0  0  0
   -0.9731    0.6525    0.0000 C   0  0  0  0  0  0  0  0  0  0  0  0
   -0.2587    0.2400    0.0000 S   0  0  0  0  0  0  0  0  0  0  0  0
    0.4558    0.6525    0.0000 C   0  0  0  0  0  0  0  0  0  0  0  0
    1.1703    0.2400    0.0000 C   0  0  0  0  0  0  0  0  0  0  0  0
    1.8848    0.6525    0.0000 N   0  0  0  0  0  0  0  0  0  0  0  0
    2.5992    0.2400    0.0000 C   0  0  0  0  0  0  0  0  0  0  0  0
    3.3137    0.6525    0.0000 N   0  0  0  0  0  0  0  0  0  0  0  0
    4.0282    0.2400    0.0000 C   0  0  0  0  0  0  0  0  0  0  0  0
    2.5992   -0.5850    0.0000 C   0  0  0  0  0  0  0  0  0  0  0  0
    3.3137   -0.9975    0.0000 N   0  3  0  0  0  0  0  0  0  0  0  0
    3.3137   -1.8225    0.0000 O   0  5  0  0  0  0  0  0  0  0  0  0
    4.0282   -0.5850    0.0000 O   0  0  0  0  0  0  0  0  0  0  0  0
   -3.8138    0.0487    0.0000 C   0  0  0  0  0  0  0  0  0  0  0  0
   -4.1493    0.8024    0.0000 N   0  0  0  0  0  0  0  0  0  0  0  0
   -4.9698    0.8886    0.0000 C   0  0  0  0  0  0  0  0  0  0  0  0
   -3.6644    1.4698    0.0000 C   0  0  0  0  0  0  0  0  0  0  0  0
    6.3853    0.0000    0.0000 Cl  0  5  0  0  0  0  0  0  0  0  0  0
  2  3  2  0  0  0  0
  3  4  1  0  0  0  0
  4  5  1  0  0  0  0
  5  6  2  0  0  0  0
  2  6  1  0  0  0  0
  5  7  1  0  0  0  0
  7  8  1  0  0  0  0
  8  9  1  0  0  0  0
  9 10  1  0  0  0  0
 10 11  1  0  0  0  0
 11 12  1  0  0  0  0
 12 13  1  0  0  0  0
 13 14  1  0  0  0  0
 12 15  2  0  0  0  0
 15 16  1  0  0  0  0
 16 17  1  0  0  0  0
 16 18  2  0  0  0  0
  3 19  1  0  0  0  0
 19 20  1  0  0  0  0
 20 21  1  0  0  0  0
 20 22  1  0  0  0  0
M  CHG  4   1   1  16   1  17  -1  23  -1
M  END
>  <Name>
Noctone

>  <CAS>
66357-59-3

>  <Formula>
C13H23ClN4O3S

>  <MolWt>
350.86 

>  <Bioactivity>
Ranitidine is a histamine H2-receptor antagonist that inhibits stomach acid production.Ranitidine (Zantac) is a histamine H2-receptor antagonist with IC50 of 3.3 ± 1.4 uM. It inhibits stomach acid production. It is also used alongside fexofenadine.

>  <Pathways>
Neuroscience

>  <Target>
Histamine Receptor antagonist

>  <Receptor>
Histamine H2 receptor

>  <Reference>
1. Pattichis K, Louca LL. Drug Metabol Drug Interact. 1995; 12(1):1-36. 

$$$$
69815-49-2
  Mrv1561503291623562D          

 23 21  0  0  1  0            999 V2000
    0.3572    0.2063    0.0000 C   0  0  2  0  0  0  0  0  0  0  0  0
    0.3572    1.0313    0.0000 O   0  0  0  0  0  0  0  0  0  0  0  0
   -0.3572   -0.2062    0.0000 C   0  0  1  0  0  0  0  0  0  0  0  0
   -0.3572   -1.0312    0.0000 O   0  0  0  0  0  0  0  0  0  0  0  0
   -1.0717    0.2063    0.0000 C   0  0  0  0  0  0  0  0  0  0  0  0
   -1.7862   -0.2063    0.0000 O   0  0  0  0  0  0  0  0  0  0  0  0
   -1.0717    1.0312    0.0000 O   0  0  0  0  0  0  0  0  0  0  0  0
    1.0717   -0.2062    0.0000 C   0  0  0  0  0  0  0  0  0  0  0  0
    1.7862    0.2063    0.0000 O   0  0  0  0  0  0  0  0  0  0  0  0
    1.0717   -1.0312    0.0000 O   0  0  0  0  0  0  0  0  0  0  0  0
    5.1008    1.1344    0.0000 C   0  0  2  0  0  0  0  0  0  0  0  0
    4.3864    1.5469    0.0000 O   0  0  0  0  0  0  0  0  0  0  0  0
    5.1008    0.3094    0.0000 C   0  0  0  0  0  0  0  0  0  0  0  0
    5.8153   -0.1031    0.0000 C   0  0  0  0  0  0  0  0  0  0  0  0
    5.8153   -0.9281    0.0000 C   0  0  0  0  0  0  0  0  0  0  0  0
    5.1008   -1.3406    0.0000 C   0  0  0  0  0  0  0  0  0  0  0  0
    5.1008   -2.1656    0.0000 O   0  0  0  0  0  0  0  0  0  0  0  0
    4.3864   -0.9281    0.0000 C   0  0  0  0  0  0  0  0  0  0  0  0
    4.3864   -0.1031    0.0000 C   0  0  0  0  0  0  0  0  0  0  0  0
    3.6719   -1.3406    0.0000 O   0  0  0  0  0  0  0  0  0  0  0  0
    5.8153    1.5469    0.0000 C   0  0  0  0  0  0  0  0  0  0  0  0
    5.8153    2.3719    0.0000 N   0  0  0  0  0  0  0  0  0  0  0  0
    0.0000   -3.8156    0.0000 O   0  0  0  0  0  0  0  0  0  0  0  0
  1  2  1  1  0  0  0
  1  3  1  0  0  0  0
  3  4  1  1  0  0  0
  3  5  1  0  0  0  0
  5  6  2  0  0  0  0
  5  7  1  0  0  0  0
  1  8  1  0  0  0  0
  8  9  2  0  0  0  0
  8 10  1  0  0  0  0
 11 12  1  1  0  0  0
 11 13  1  0  0  0  0
 13 14  2  0  0  0  0
 14 15  1  0  0  0  0
 15 16  2  0  0  0  0
 16 17  1  0  0  0  0
 16 18  1  0  0  0  0
 18 19  2  0  0  0  0
 13 19  1  0  0  0  0
 18 20  1  0  0  0  0
 11 21  1  0  0  0  0
 21 22  1  0  0  0  0
M  END
>  <Name>
Noradrenaline bitartrate

>  <CAS>
69815-49-2

>  <Formula>
C8H11NO3

>  <MolWt>
337.28 

>  <Bioactivity>
orepinephrine is the principal transmitter of most postganglionic sympathetic fibers and of the diffuse projection system in the brain arising from the locus ceruleus. It is also found in plants and is used pharmacologically as a sympathomimetic. 

>  <Pathways>
GPCR/G Protein

>  <Target>
Adrenergic Receptor antagonist

>  <Receptor>
Adrenergic Receptor

>  <Reference>
1. Lachnit WG, et al. Br J Pharmacol. 1997 Mar;120(5):819-26.

$$$$
T0953
  Mrv1561503291623562D          

 30 32  0  0  0  0            999 V2000
   -3.6632   -2.2348    0.0000 C   0  0  0  0  0  0  0  0  0  0  0  0
   -4.3551   -1.7855    0.0000 N   0  0  0  0  0  0  0  0  0  0  0  0
   -4.1415   -0.9886    0.0000 N   0  0  0  0  0  0  0  0  0  0  0  0
   -3.3177   -0.9455    0.0000 N   0  0  0  0  0  0  0  0  0  0  0  0
   -3.0220   -1.7157    0.0000 N   0  0  0  0  0  0  0  0  0  0  0  0
   -2.2251   -1.9292    0.0000 C   0  0  0  0  0  0  0  0  0  0  0  0
   -1.6418   -1.3458    0.0000 C   0  0  0  0  0  0  0  0  0  0  0  0
   -0.8449   -1.5593    0.0000 N   0  0  0  0  0  0  0  0  0  0  0  0
   -0.2615   -0.9760    0.0000 C   0  0  0  0  0  0  0  0  0  0  0  0
    0.5635   -0.9760    0.0000 C   0  0  0  0  0  0  0  0  0  0  0  0
    0.5635   -0.1510    0.0000 N   0  0  0  0  0  0  0  0  0  0  0  0
    1.2780    0.2615    0.0000 C   0  0  0  0  0  0  0  0  0  0  0  0
    1.9924   -0.1510    0.0000 C   0  0  0  0  0  0  0  0  0  0  0  0
    2.7069    0.2615    0.0000 C   0  0  0  0  0  0  0  0  0  0  0  0
    3.4214   -0.1510    0.0000 S   0  0  0  0  0  0  0  0  0  0  0  0
    4.1358    0.2615    0.0000 C   0  0  0  0  0  0  0  0  0  0  0  0
    4.2221    1.0820    0.0000 N   0  0  0  0  0  0  0  0  0  0  0  0
    5.0290    1.2535    0.0000 N   0  0  0  0  0  0  0  0  0  0  0  0
    5.4415    0.5391    0.0000 C   0  0  0  0  0  0  0  0  0  0  0  0
    4.8895   -0.0740    0.0000 S   0  0  0  0  0  0  0  0  0  0  0  0
    6.2620    0.4528    0.0000 C   0  0  0  0  0  0  0  0  0  0  0  0
    1.9924   -0.9760    0.0000 C   0  0  0  0  0  0  0  0  0  0  0  0
    1.2780   -1.3885    0.0000 S   0  0  0  0  0  0  0  0  0  0  0  0
    1.2780    1.0865    0.0000 C   0  0  0  0  0  0  0  0  0  0  0  0
    0.5635    1.4990    0.0000 O   0  0  0  0  0  0  0  0  0  0  0  0
    1.9924    1.4990    0.0000 O   0  5  0  0  0  0  0  0  0  0  0  0
   -0.2615   -0.1510    0.0000 C   0  0  0  0  0  0  0  0  0  0  0  0
   -0.8449    0.4324    0.0000 O   0  0  0  0  0  0  0  0  0  0  0  0
   -1.8553   -0.5489    0.0000 O   0  0  0  0  0  0  0  0  0  0  0  0
    2.7069    1.9115    0.0000 Na  0  3  0  0  0  0  0  0  0  0  0  0
  1  2  2  0  0  0  0
  2  3  1  0  0  0  0
  3  4  2  0  0  0  0
  4  5  1  0  0  0  0
  1  5  1  0  0  0  0
  5  6  1  0  0  0  0
  6  7  1  0  0  0  0
  7  8  1  0  0  0  0
  8  9  1  0  0  0  0
  9 10  1  0  0  0  0
 10 11  1  0  0  0  0
 11 12  1  0  0  0  0
 12 13  2  0  0  0  0
 13 14  1  0  0  0  0
 14 15  1  0  0  0  0
 15 16  1  0  0  0  0
 16 17  2  0  0  0  0
 17 18  1  0  0  0  0
 18 19  2  0  0  0  0
 19 20  1  0  0  0  0
 16 20  1  0  0  0  0
 19 21  1  0  0  0  0
 13 22  1  0  0  0  0
 22 23  1  0  0  0  0
 10 23  1  0  0  0  0
 12 24  1  0  0  0  0
 24 25  2  0  0  0  0
 24 26  1  0  0  0  0
 11 27  1  0  0  0  0
  9 27  1  0  0  0  0
 27 28  2  0  0  0  0
  7 29  2  0  0  0  0
M  CHG  2  26  -1  30   1
M  END
>  <Name>
Cefazolin sodium salt

>  <CAS>
27164-46-1

>  <Formula>
C14H13N8NaO4S3

>  <MolWt>
476.48 

>  <Bioactivity>
A semisynthetic cephalosporin analog with broad-spectrum antibiotic action due to inhibition of bacterial cell wall synthesis. It attains high serum levels and is excreted quickly via the urine. 

>  <Pathways>
Microbiology & Virology

>  <Target>
Antibiotic

>  <Receptor>
Peptidoglycan synthase; PBPs;PON

>  <Reference>
1. Truesdell SE, et al. J Antimicrob Chemother. 1989 Apr;23 Suppl D:13-9. 

$$$$
T1031
  Mrv1561503291623562D          

 31 32  0  0  1  0            999 V2000
    0.8787   -0.4225    0.0000 C   0  0  0  0  0  0  0  0  0  0  0  0
    1.6633   -0.1675    0.0000 S   0  0  0  0  0  0  0  0  0  0  0  0
    2.1482   -0.8350    0.0000 C   0  0  0  0  0  0  0  0  0  0  0  0
    1.6633   -1.5024    0.0000 C   0  0  0  0  0  0  0  0  0  0  0  0
    0.8787   -1.2475    0.0000 N   0  0  0  0  0  0  0  0  0  0  0  0
    0.0537   -1.2475    0.0000 C   0  0  0  0  0  0  0  0  0  0  0  0
   -0.5297   -1.8308    0.0000 O   0  0  0  0  0  0  0  0  0  0  0  0
    0.0537   -0.4225    0.0000 C   0  0  0  0  0  0  0  0  0  0  0  0
   -0.5297    0.1609    0.0000 N   0  0  0  0  0  0  0  0  0  0  0  0
   -1.3266   -0.0526    0.0000 C   0  0  0  0  0  0  0  0  0  0  0  0
   -1.5401   -0.8495    0.0000 O   0  0  0  0  0  0  0  0  0  0  0  0
   -1.9099    0.5307    0.0000 C   0  0  0  0  0  0  0  0  0  0  0  0
   -2.7248    0.4017    0.0000 C   0  0  0  0  0  0  0  0  0  0  0  0
   -3.0993    1.1368    0.0000 O   0  0  0  0  0  0  0  0  0  0  0  0
   -2.5160    1.7201    0.0000 N   0  0  0  0  0  0  0  0  0  0  0  0
   -1.7809    1.3456    0.0000 C   0  0  0  0  0  0  0  0  0  0  0  0
   -1.0458    1.7201    0.0000 C   0  0  0  0  0  0  0  0  0  0  0  0
   -0.3539    1.2708    0.0000 C   0  0  0  0  0  0  0  0  0  0  0  0
    0.3812    1.6453    0.0000 C   0  0  0  0  0  0  0  0  0  0  0  0
    0.4244    2.4692    0.0000 C   0  0  0  0  0  0  0  0  0  0  0  0
   -0.2675    2.9185    0.0000 C   0  0  0  0  0  0  0  0  0  0  0  0
   -1.0026    2.5440    0.0000 C   0  0  0  0  0  0  0  0  0  0  0  0
   -1.6945    2.9933    0.0000 Cl  0  0  0  0  0  0  0  0  0  0  0  0
   -3.0993   -0.3334    0.0000 C   0  0  0  0  0  0  0  0  0  0  0  0
    1.9182   -2.2870    0.0000 C   0  0  0  0  0  0  0  0  0  0  0  0
    2.7252   -2.4586    0.0000 O   0  5  0  0  0  0  0  0  0  0  0  0
    1.3662   -2.9001    0.0000 O   0  0  0  0  0  0  0  0  0  0  0  0
    2.8670   -0.4300    0.0000 C   0  0  0  0  0  0  0  0  0  0  0  0
    2.8670   -1.2400    0.0000 C   0  0  0  0  0  0  0  0  0  0  0  0
    3.5322   -2.6301    0.0000 Na  0  3  0  0  0  0  0  0  0  0  0  0
    5.8893    0.0000    0.0000 O   0  0  0  0  0  0  0  0  0  0  0  0
  1  2  1  0  0  0  0
  2  3  1  0  0  0  0
  3  4  1  0  0  0  0
  4  5  1  0  0  0  0
  1  5  1  0  0  0  0
  5  6  1  0  0  0  0
  6  7  2  0  0  0  0
  6  8  1  0  0  0  0
  1  8  1  0  0  0  0
  8  9  1  0  0  0  0
  9 10  1  0  0  0  0
 10 11  2  0  0  0  0
 10 12  1  0  0  0  0
 12 13  2  0  0  0  0
 13 14  1  0  0  0  0
 14 15  1  0  0  0  0
 15 16  2  0  0  0  0
 12 16  1  0  0  0  0
 16 17  1  0  0  0  0
 17 18  2  0  0  0  0
 18 19  1  0  0  0  0
 19 20  2  0  0  0  0
 20 21  1  0  0  0  0
 21 22  2  0  0  0  0
 17 22  1  0  0  0  0
 22 23  1  0  0  0  0
 13 24  1  0  0  0  0
  4 25  1  0  0  0  0
 25 26  1  0  0  0  0
 25 27  2  0  0  0  0
  3 28  1  0  0  0  0
  3 29  1  0  0  0  0
M  CHG  2  26  -1  30   1
M  END
>  <Name>
Cloxacillin sodium

>  <CAS>
7081-44-9

>  <Formula>
C19H17ClN3NaO5S.H2O

>  <MolWt>
475.88 

>  <Bioactivity>
Cloxacillin sodium (Cloxacap) is a sodium salt of cloxacillin that is a penicillinase-resistant, acid resistant, semi-synthetic penicillin. Cloxacillin sodium exerts a bactericidal action against susceptible microorganisms during the stage of active multiplication. Cloxacillin sodium acts through the inhibition of biosynthesis of cell wall mucopeptides.

>  <Pathways>
Microbiology & Virology

>  <Target>
Antibacterial

>  <Receptor>
Others

>  <Reference>
1. Roy DK, et al. Spectrochim Acta A Mol Biomol Spectrosc. 2005 Jul;61(9):2017-22.

$$$$
63-92-3
  Mrv1561503291623562D          

 23 22  0  0  0  0            999 V2000
    0.4125    0.0000    0.0000 H   0  3  0  0  0  0  0  0  0  0  0  0
    7.6607    0.5444    0.0000 C   0  0  0  0  0  0  0  0  0  0  0  0
    7.2482    1.2588    0.0000 C   0  0  0  0  0  0  0  0  0  0  0  0
    6.4232    1.2588    0.0000 C   0  0  0  0  0  0  0  0  0  0  0  0
    6.0107    0.5444    0.0000 N   0  0  0  0  0  0  0  0  0  0  0  0
    5.1857    0.5444    0.0000 C   0  0  0  0  0  0  0  0  0  0  0  0
    4.7732   -0.1701    0.0000 C   0  0  0  0  0  0  0  0  0  0  0  0
    3.9482   -0.1701    0.0000 O   0  0  0  0  0  0  0  0  0  0  0  0
    3.5357   -0.8846    0.0000 C   0  0  0  0  0  0  0  0  0  0  0  0
    3.9482   -1.5991    0.0000 C   0  0  0  0  0  0  0  0  0  0  0  0
    3.5357   -2.3135    0.0000 C   0  0  0  0  0  0  0  0  0  0  0  0
    2.7107   -2.3135    0.0000 C   0  0  0  0  0  0  0  0  0  0  0  0
    2.2982   -1.5991    0.0000 C   0  0  0  0  0  0  0  0  0  0  0  0
    2.7107   -0.8846    0.0000 C   0  0  0  0  0  0  0  0  0  0  0  0
    4.7732    1.2588    0.0000 C   0  0  0  0  0  0  0  0  0  0  0  0
    6.4232   -0.1701    0.0000 C   0  0  0  0  0  0  0  0  0  0  0  0
    7.2482   -0.1701    0.0000 C   0  0  0  0  0  0  0  0  0  0  0  0
    7.6607   -0.8846    0.0000 Cl  0  0  0  0  0  0  0  0  0  0  0  0
    7.6607    1.9733    0.0000 C   0  0  0  0  0  0  0  0  0  0  0  0
    8.4857    1.9733    0.0000 C   0  0  0  0  0  0  0  0  0  0  0  0
    8.8982    1.2588    0.0000 C   0  0  0  0  0  0  0  0  0  0  0  0
    8.4857    0.5444    0.0000 C   0  0  0  0  0  0  0  0  0  0  0  0
   -0.4125    0.0000    0.0000 Cl  0  5  0  0  0  0  0  0  0  0  0  0
  2  3  2  0  0  0  0
  3  4  1  0  0  0  0
  4  5  1  0  0  0  0
  5  6  1  0  0  0  0
  6  7  1  0  0  0  0
  7  8  1  0  0  0  0
  8  9  1  0  0  0  0
  9 10  2  0  0  0  0
 10 11  1  0  0  0  0
 11 12  2  0  0  0  0
 12 13  1  0  0  0  0
 13 14  2  0  0  0  0
  9 14  1  0  0  0  0
  6 15  1  0  0  0  0
  5 16  1  0  0  0  0
 16 17  1  0  0  0  0
 17 18  1  0  0  0  0
  3 19  1  0  0  0  0
 19 20  2  0  0  0  0
 20 21  1  0  0  0  0
 21 22  2  0  0  0  0
  2 22  1  0  0  0  0
M  CHG  2   1   1  23  -1
M  END
>  <Name>
Phenoxybenzamine HCl

>  <CAS>
63-92-3

>  <Formula>
C18H23Cl2NO

>  <MolWt>
340.30 

>  <Bioactivity>
An alpha-adrenergic antagonist with long duration of action. It has been used to treat hypertension and as a peripheral vasodilator.

>  <Pathways>
GPCR/G Protein

>  <Target>
Adrenergic Receptor antagonist;Calmodulin inhibitor

>  <Receptor>
Adrenergic Receptor;Calmodulin

>  <Reference>
1. Stam WB, et al. Br J Pharmacol. 1999 Jun; 127(3):661-70. 

$$$$
136-47-0
  Mrv1561503291623562D          

 21 19  0  0  0  0            999 V2000
    0.4125    0.0000    0.0000 H   0  3  0  0  0  0  0  0  0  0  0  0
    6.3420    0.2171    0.0000 C   0  0  0  0  0  0  0  0  0  0  0  0
    6.3420   -0.6079    0.0000 C   0  0  0  0  0  0  0  0  0  0  0  0
    7.0565   -1.0204    0.0000 C   0  0  0  0  0  0  0  0  0  0  0  0
    7.7709   -0.6079    0.0000 O   0  0  0  0  0  0  0  0  0  0  0  0
    8.4854   -1.0204    0.0000 C   0  0  0  0  0  0  0  0  0  0  0  0
    9.1999   -0.6079    0.0000 C   0  0  0  0  0  0  0  0  0  0  0  0
    9.9144   -1.0204    0.0000 N   0  0  0  0  0  0  0  0  0  0  0  0
   10.6288   -0.6079    0.0000 C   0  0  0  0  0  0  0  0  0  0  0  0
    9.9144   -1.8454    0.0000 C   0  0  0  0  0  0  0  0  0  0  0  0
    7.0565   -1.8454    0.0000 O   0  0  0  0  0  0  0  0  0  0  0  0
    5.6275   -1.0204    0.0000 C   0  0  0  0  0  0  0  0  0  0  0  0
    4.9131   -0.6079    0.0000 C   0  0  0  0  0  0  0  0  0  0  0  0
    4.9131    0.2171    0.0000 C   0  0  0  0  0  0  0  0  0  0  0  0
    5.6275    0.6296    0.0000 C   0  0  0  0  0  0  0  0  0  0  0  0
    4.1986    0.6296    0.0000 N   0  0  0  0  0  0  0  0  0  0  0  0
    4.1986    1.4546    0.0000 C   0  0  0  0  0  0  0  0  0  0  0  0
    3.4841    1.8671    0.0000 C   0  0  0  0  0  0  0  0  0  0  0  0
    3.4841    2.6921    0.0000 C   0  0  0  0  0  0  0  0  0  0  0  0
    2.7696    3.1046    0.0000 C   0  0  0  0  0  0  0  0  0  0  0  0
   -0.4125    0.0000    0.0000 Cl  0  5  0  0  0  0  0  0  0  0  0  0
  2  3  2  0  0  0  0
  3  4  1  0  0  0  0
  4  5  1  0  0  0  0
  5  6  1  0  0  0  0
  6  7  1  0  0  0  0
  7  8  1  0  0  0  0
  8  9  1  0  0  0  0
  8 10  1  0  0  0  0
  4 11  2  0  0  0  0
  3 12  1  0  0  0  0
 12 13  2  0  0  0  0
 13 14  1  0  0  0  0
 14 15  2  0  0  0  0
  2 15  1  0  0  0  0
 14 16  1  0  0  0  0
 16 17  1  0  0  0  0
 17 18  1  0  0  0  0
 18 19  1  0  0  0  0
 19 20  1  0  0  0  0
M  CHG  2   1   1  21  -1
M  END
>  <Name>
Tetracaine HCl

>  <CAS>
136-47-0

>  <Formula>
C15H24N2O2.HCl

>  <MolWt>
300.83 

>  <Bioactivity>
Tetracaine hydrochloride (Pontocaine) is a hydrochloride salt form of tetracaine which is a potent local anaesthetic and a channel function allosteric inhibitor. Tetracaine hydrochloride (Pontocaine) is used to block temporarily the pain "message" that is sent along the nerves that connect the eyes to the brain. Tetracaine hydrochloride (Pontocaine) is mainly used topically in ophthalmology and as an antipruritic, and it has been used in spinal anesthesia. 

>  <Pathways>
Membrane Transporter/Ion Channel

>  <Target>
Sodium Channel

>  <Receptor>
Sodium Channel

>  <Reference>
1. Leng T, et al. Mol Pain. 2013 Jun 10;9:27

$$$$
15676-16-1
  Mrv1561503291623562D          

 23 24  0  0  0  0            999 V2000
    0.7145   -0.4125    0.0000 C   0  0  0  0  0  0  0  0  0  0  0  0
   -0.0000   -0.0000    0.0000 C   0  0  0  0  0  0  0  0  0  0  0  0
   -0.7145   -0.4125    0.0000 S   0  0  0  0  0  0  0  0  0  0  0  0
   -1.4289   -0.8250    0.0000 O   0  0  0  0  0  0  0  0  0  0  0  0
   -0.3020   -1.1270    0.0000 O   0  0  0  0  0  0  0  0  0  0  0  0
   -1.1270    0.3020    0.0000 N   0  0  0  0  0  0  0  0  0  0  0  0
   -0.0000    0.8250    0.0000 C   0  0  0  0  0  0  0  0  0  0  0  0
    0.7145    1.2375    0.0000 C   0  0  0  0  0  0  0  0  0  0  0  0
    1.4289    0.8250    0.0000 C   0  0  0  0  0  0  0  0  0  0  0  0
    1.4289   -0.0000    0.0000 C   0  0  0  0  0  0  0  0  0  0  0  0
    2.1434   -0.4125    0.0000 C   0  0  0  0  0  0  0  0  0  0  0  0
    2.1434   -1.2375    0.0000 N   0  0  0  0  0  0  0  0  0  0  0  0
    2.8579   -1.6500    0.0000 C   0  0  0  0  0  0  0  0  0  0  0  0
    2.8579   -2.4750    0.0000 C   0  0  0  0  0  0  0  0  0  0  0  0
    3.5253   -2.9599    0.0000 N   0  0  0  0  0  0  0  0  0  0  0  0
    4.3099   -2.7050    0.0000 C   0  0  0  0  0  0  0  0  0  0  0  0
    4.4815   -1.8980    0.0000 C   0  0  0  0  0  0  0  0  0  0  0  0
    3.2704   -3.7445    0.0000 C   0  0  0  0  0  0  0  0  0  0  0  0
    2.4454   -3.7445    0.0000 C   0  0  0  0  0  0  0  0  0  0  0  0
    2.1904   -2.9599    0.0000 C   0  0  0  0  0  0  0  0  0  0  0  0
    2.8579   -0.0000    0.0000 O   0  0  0  0  0  0  0  0  0  0  0  0
    2.1434    1.2375    0.0000 O   0  0  0  0  0  0  0  0  0  0  0  0
    2.8579    0.8250    0.0000 C   0  0  0  0  0  0  0  0  0  0  0  0
  1  2  2  0  0  0  0
  2  3  1  0  0  0  0
  3  4  2  0  0  0  0
  3  5  2  0  0  0  0
  3  6  1  0  0  0  0
  2  7  1  0  0  0  0
  7  8  2  0  0  0  0
  8  9  1  0  0  0  0
  9 10  2  0  0  0  0
  1 10  1  0  0  0  0
 10 11  1  0  0  0  0
 11 12  1  0  0  0  0
 12 13  1  0  0  0  0
 13 14  1  0  0  0  0
 14 15  1  0  0  0  0
 15 16  1  0  0  0  0
 16 17  1  0  0  0  0
 15 18  1  0  0  0  0
 18 19  1  0  0  0  0
 19 20  1  0  0  0  0
 14 20  1  0  0  0  0
 11 21  2  0  0  0  0
  9 22  1  0  0  0  0
 22 23  1  0  0  0  0
M  END
>  <Name>
Sulpiride

>  <CAS>
15676-16-1

>  <Formula>
C15H23N3O4S

>  <MolWt>
341.43 

>  <Bioactivity>
Levosulpiride is a selective antagonist for D2 dopamine receptors used as an antipsychotic and prokinetic agent.

>  <Pathways>
Neuroscience

>  <Target>
Dopamine Receptor antagonist

>  <Receptor>
Dopamine receptor

>  <Reference>
1. Saporito F, et al. Int J Cardiol. 2014 Aug 1;175(2):383-4. 

$$$$
T1205
  Mrv1561503291623562D          

 20 20  0  0  0  0            999 V2000
    8.7138    1.7309    0.0000 C   0  0  0  0  0  0  0  0  0  0  0  0
    9.5388    1.7309    0.0000 C   0  0  0  0  0  0  0  0  0  0  0  0
    9.9513    1.0164    0.0000 C   0  0  0  0  0  0  0  0  0  0  0  0
    9.5388    0.3020    0.0000 C   0  0  0  0  0  0  0  0  0  0  0  0
    8.7138    0.3020    0.0000 C   0  0  0  0  0  0  0  0  0  0  0  0
    8.3013    1.0164    0.0000 C   0  0  0  0  0  0  0  0  0  0  0  0
    7.4763    1.0164    0.0000 C   0  0  0  0  0  0  0  0  0  0  0  0
    7.0638    0.3020    0.0000 C   0  0  0  0  0  0  0  0  0  0  0  0
    6.2388    0.3020    0.0000 N   0  0  0  0  0  0  0  0  0  0  0  0
    5.8263   -0.4125    0.0000 C   0  0  0  0  0  0  0  0  0  0  0  0
    5.0013   -0.4125    0.0000 C   0  0  0  0  0  0  0  0  0  0  0  0
    4.5888   -1.1270    0.0000 Cl  0  0  0  0  0  0  0  0  0  0  0  0
    4.5888    0.3020    0.0000 Cl  0  0  0  0  0  0  0  0  0  0  0  0
    6.2388   -1.1270    0.0000 O   0  0  0  0  0  0  0  0  0  0  0  0
    7.4763   -0.4125    0.0000 C   0  0  0  0  0  0  0  0  0  0  0  0
    7.0638   -1.1270    0.0000 O   0  0  0  0  0  0  0  0  0  0  0  0
    7.0638    1.7309    0.0000 O   0  0  0  0  0  0  0  0  0  0  0  0
   10.7763    1.0164    0.0000 N   0  3  0  0  0  0  0  0  0  0  0  0
   11.1888    1.7309    0.0000 O   0  0  0  0  0  0  0  0  0  0  0  0
   11.1888    0.3020    0.0000 O   0  5  0  0  0  0  0  0  0  0  0  0
  1  2  2  0  0  0  0
  2  3  1  0  0  0  0
  3  4  2  0  0  0  0
  4  5  1  0  0  0  0
  5  6  2  0  0  0  0
  1  6  1  0  0  0  0
  6  7  1  0  0  0  0
  7  8  1  0  0  0  0
  8  9  1  0  0  0  0
  9 10  1  0  0  0  0
 10 11  1  0  0  0  0
 11 12  1  0  0  0  0
 11 13  1  0  0  0  0
 10 14  2  0  0  0  0
  8 15  1  0  0  0  0
 15 16  1  0  0  0  0
  7 17  1  0  0  0  0
  3 18  1  0  0  0  0
 18 19  2  0  0  0  0
 18 20  1  0  0  0  0
M  CHG  2  18   1  20  -1
M  END
>  <Name>
Chloramphenicol

>  <CAS>
56-75-7

>  <Formula>
C11H12Cl2N2O5

>  <MolWt>
323.13 

>  <Bioactivity>
An antibiotic first isolated from cultures of Streptomyces venequelae in 1947 but now produced synthetically. It has a relatively simple structure and was the first broad-spectrum antibiotic to be discovered. It acts by interfering with bacterial protein synthesis and is mainly bacteriostatic. (From Martindale, The Extra Pharmacopoeia, 29th ed, p106)  

>  <Pathways>
Microbiology & Virology

>  <Target>
Antibacterial

>  <Receptor>
50S ribosomal protein

>  <Reference>
1. Murray IA, et al. J Mol Biol. 1995 Dec 15;254(5):993-1005. 

$$$$
51-52-5
  Mrv1561503291623562D          

 11 11  0  0  0  0            999 V2000
    0.7145    2.0625    0.0000 C   0  0  0  0  0  0  0  0  0  0  0  0
    0.7145    1.2375    0.0000 C   0  0  0  0  0  0  0  0  0  0  0  0
    1.4289    0.8250    0.0000 C   0  0  0  0  0  0  0  0  0  0  0  0
    1.4289    0.0000    0.0000 C   0  0  0  0  0  0  0  0  0  0  0  0
    0.7145   -0.4125    0.0000 N   0  0  0  0  0  0  0  0  0  0  0  0
    0.0000   -0.0000    0.0000 C   0  0  0  0  0  0  0  0  0  0  0  0
    0.0000    0.8250    0.0000 N   0  0  0  0  0  0  0  0  0  0  0  0
   -0.7145   -0.4125    0.0000 S   0  0  0  0  0  0  0  0  0  0  0  0
    2.1434   -0.4125    0.0000 O   0  0  0  0  0  0  0  0  0  0  0  0
    1.4289    2.4750    0.0000 C   0  0  0  0  0  0  0  0  0  0  0  0
    1.4289    3.3000    0.0000 C   0  0  0  0  0  0  0  0  0  0  0  0
  1  2  1  0  0  0  0
  2  3  2  0  0  0  0
  3  4  1  0  0  0  0
  4  5  1  0  0  0  0
  5  6  1  0  0  0  0
  6  7  1  0  0  0  0
  2  7  1  0  0  0  0
  6  8  2  0  0  0  0
  4  9  2  0  0  0  0
  1 10  1  0  0  0  0
 10 11  1  0  0  0  0
M  END
>  <Name>
Propylthiouracil

>  <CAS>
51-52-5

>  <Formula>
C7H10N2OS

>  <MolWt>
170.24 

>  <Bioactivity>
Propylthiouracil is a Thyroid Hormone Synthesis Inhibitor. A thiourea antithyroid agent. Propythiouracil inhibits the synthesis of thyroxine and inhibits the peripheral conversion of throxine to tri-iodothyronine. It is used in the treatment of hyperthyroidism. (From Martindale, The Extra Pharmacopeoia, 30th ed, p534) 

>  <Pathways>
Endocrinology/ Hormones

>  <Target>
Thyroid Hormone Synthesis inhibitor

>  <Receptor>
Thyroid peripheral conversion

>  <Reference>
1. Sugawara M, et al. Thyroid. 1999 May;9(5):513-8.

$$$$
T1388
  Mrv1561503291623562D          

 22 24  0  0  0  0            999 V2000
   -4.1801    3.1152    0.0000 C   0  0  0  0  0  0  0  0  0  0  0  0
   -4.1801    2.2902    0.0000 C   0  0  0  0  0  0  0  0  0  0  0  0
   -3.4656    1.8777    0.0000 C   0  0  0  0  0  0  0  0  0  0  0  0
   -2.7512    1.4652    0.0000 C   0  0  0  0  0  0  0  0  0  0  0  0
   -2.7512    0.6402    0.0000 N   0  0  0  0  0  0  0  0  0  0  0  0
   -2.0837    0.1553    0.0000 C   0  0  0  0  0  0  0  0  0  0  0  0
   -2.3387   -0.6294    0.0000 N   0  0  0  0  0  0  0  0  0  0  0  0
   -3.1637   -0.6294    0.0000 C   0  0  0  0  0  0  0  0  0  0  0  0
   -3.4186    0.1553    0.0000 N   0  0  0  0  0  0  0  0  0  0  0  0
   -3.0531    2.5922    0.0000 C   0  0  0  0  0  0  0  0  0  0  0  0
   -2.2281    2.5922    0.0000 N   0  0  0  0  0  0  0  0  0  0  0  0
   -1.7432    3.2596    0.0000 C   0  0  0  0  0  0  0  0  0  0  0  0
   -0.9586    3.0047    0.0000 N   0  0  0  0  0  0  0  0  0  0  0  0
   -0.9586    2.1797    0.0000 C   0  0  0  0  0  0  0  0  0  0  0  0
   -1.7432    1.9247    0.0000 N   0  0  0  0  0  0  0  0  0  0  0  0
   -3.8781    1.1632    0.0000 O   0  0  0  0  0  0  0  0  0  0  0  0
   -4.8946    1.8777    0.0000 C   0  0  0  0  0  0  0  0  0  0  0  0
   -5.6091    2.2902    0.0000 C   0  0  0  0  0  0  0  0  0  0  0  0
   -5.6091    3.1152    0.0000 C   0  0  0  0  0  0  0  0  0  0  0  0
   -4.8946    3.5277    0.0000 C   0  0  0  0  0  0  0  0  0  0  0  0
   -6.3235    3.5277    0.0000 F   0  0  0  0  0  0  0  0  0  0  0  0
   -4.8946    1.0527    0.0000 F   0  0  0  0  0  0  0  0  0  0  0  0
  1  2  2  0  0  0  0
  2  3  1  0  0  0  0
  3  4  1  0  0  0  0
  4  5  1  0  0  0  0
  5  6  1  0  0  0  0
  6  7  2  0  0  0  0
  7  8  1  0  0  0  0
  8  9  2  0  0  0  0
  5  9  1  0  0  0  0
  3 10  1  0  0  0  0
 10 11  1  0  0  0  0
 11 12  1  0  0  0  0
 12 13  2  0  0  0  0
 13 14  1  0  0  0  0
 14 15  2  0  0  0  0
 11 15  1  0  0  0  0
  3 16  1  0  0  0  0
  2 17  1  0  0  0  0
 17 18  2  0  0  0  0
 18 19  1  0  0  0  0
 19 20  2  0  0  0  0
  1 20  1  0  0  0  0
 19 21  1  0  0  0  0
 17 22  1  0  0  0  0
M  END
>  <Name>
Fluconazole

>  <CAS>
86386-73-4

>  <Formula>
C13H12F2N6O

>  <MolWt>
306.27 

>  <Bioactivity>
Triazole antifungal agent that is used to treat oropharyngeal candidiasis and cryptococcal meningitis in AIDS. 

>  <Pathways>
Microbiology & Virology

>  <Target>
Antibiotic

>  <Receptor>
14-? Demethylase

>  <Reference>
1. Uppuluri P, et al. Antimicrob Agents Chemother, 2008, 52(3), 1127-1132.

$$$$
56038-13-2
  Mrv1561503291623562D          

 23 24  0  0  1  0            999 V2000
   -0.2169   -1.6157    0.0000 C   0  0  2  0  0  0  0  0  0  0  0  0
    0.3352   -1.0026    0.0000 O   0  0  0  0  0  0  0  0  0  0  0  0
    0.0802   -0.2179    0.0000 C   0  0  1  0  0  0  0  0  0  0  0  0
   -0.7267   -0.0464    0.0000 O   0  0  0  0  0  0  0  0  0  0  0  0
   -0.9817    0.7382    0.0000 C   0  0  1  0  0  0  0  0  0  0  0  0
   -0.4296    1.3513    0.0000 C   0  0  2  0  0  0  0  0  0  0  0  0
   -0.6846    2.1359    0.0000 Cl  0  0  0  0  0  0  0  0  0  0  0  0
    0.3773    1.1798    0.0000 C   0  0  2  0  0  0  0  0  0  0  0  0
    0.9294    1.7929    0.0000 O   0  0  0  0  0  0  0  0  0  0  0  0
    0.6323    0.3952    0.0000 C   0  0  1  0  0  0  0  0  0  0  0  0
    1.4392    0.2236    0.0000 O   0  0  0  0  0  0  0  0  0  0  0  0
   -1.7887    0.9097    0.0000 C   0  0  0  0  0  0  0  0  0  0  0  0
   -2.0436    1.6944    0.0000 O   0  0  0  0  0  0  0  0  0  0  0  0
   -0.8843   -2.1006    0.0000 O   0  0  0  0  0  0  0  0  0  0  0  0
   -0.6294   -2.8852    0.0000 C   0  0  1  0  0  0  0  0  0  0  0  0
    0.1956   -2.8852    0.0000 C   0  0  1  0  0  0  0  0  0  0  0  0
    0.6806   -3.5526    0.0000 O   0  0  0  0  0  0  0  0  0  0  0  0
    0.4506   -2.1006    0.0000 C   0  0  2  0  0  0  0  0  0  0  0  0
    1.2352   -1.8456    0.0000 O   0  0  0  0  0  0  0  0  0  0  0  0
   -1.1143   -3.5526    0.0000 C   0  0  0  0  0  0  0  0  0  0  0  0
   -1.9348   -3.4664    0.0000 Cl  0  0  0  0  0  0  0  0  0  0  0  0
   -0.7689   -1.0026    0.0000 C   0  0  0  0  0  0  0  0  0  0  0  0
   -1.5759   -1.1741    0.0000 Cl  0  0  0  0  0  0  0  0  0  0  0  0
  1  2  1  1  0  0  0
  3  2  1  1  0  0  0
  3  4  1  0  0  0  0
  4  5  1  0  0  0  0
  5  6  1  0  0  0  0
  6  7  1  6  0  0  0
  6  8  1  0  0  0  0
  8  9  1  6  0  0  0
  8 10  1  0  0  0  0
  3 10  1  0  0  0  0
 10 11  1  1  0  0  0
  5 12  1  6  0  0  0
 12 13  1  0  0  0  0
  1 14  1  0  0  0  0
 14 15  1  0  0  0  0
 15 16  1  0  0  0  0
 16 17  1  6  0  0  0
 16 18  1  0  0  0  0
  1 18  1  0  0  0  0
 18 19  1  1  0  0  0
 15 20  1  1  0  0  0
 20 21  1  0  0  0  0
  1 22  1  6  0  0  0
 22 23  1  0  0  0  0
M  END
>  <Name>
Sucralose

>  <CAS>
56038-13-2

>  <Formula>
C12H19Cl3O8

>  <MolWt>
397.63 

>  <Bioactivity>
Sucralose is an artificial and noncaloric sweetener, not broken down by the body, so it is noncaloric.

>  <Pathways>
Others

>  <Target>
Others

>  <Receptor>
Others

>  <Reference>
1. Stoddard KI, Huggett DB. Bull Environ Contam Toxicol. 2014 Oct;93(4):383-7.

$$$$
T1408
  Mrv1561503291623562D          

 25 26  0  0  1  0            999 V2000
   -2.1434    0.4125    0.0000 C   0  0  1  0  0  0  0  0  0  0  0  0
   -1.4289    0.8250    0.0000 N   0  0  0  0  0  0  0  0  0  0  0  0
   -1.4289    1.6500    0.0000 C   0  0  0  0  0  0  0  0  0  0  0  0
   -0.7145    2.0625    0.0000 N   0  0  0  0  0  0  0  0  0  0  0  0
    0.0000    1.6500    0.0000 C   0  0  0  0  0  0  0  0  0  0  0  0
    0.7145    2.0625    0.0000 N   0  0  0  0  0  0  0  0  0  0  0  0
    1.4289    1.6500    0.0000 C   0  0  0  0  0  0  0  0  0  0  0  0
    2.1434    2.0625    0.0000 O   0  0  0  0  0  0  0  0  0  0  0  0
    2.8579    1.6500    0.0000 C   0  0  0  0  0  0  0  0  0  0  0  0
    3.5724    2.0625    0.0000 C   0  0  0  0  0  0  0  0  0  0  0  0
    4.2868    1.6500    0.0000 C   0  0  0  0  0  0  0  0  0  0  0  0
    5.0013    2.0625    0.0000 C   0  0  0  0  0  0  0  0  0  0  0  0
    5.7158    1.6500    0.0000 C   0  0  0  0  0  0  0  0  0  0  0  0
    1.4289    0.8250    0.0000 O   0  0  0  0  0  0  0  0  0  0  0  0
    0.0000    0.8250    0.0000 C   0  0  0  0  0  0  0  0  0  0  0  0
   -0.7145    0.4125    0.0000 C   0  0  0  0  0  0  0  0  0  0  0  0
    0.7145    0.4125    0.0000 F   0  0  0  0  0  0  0  0  0  0  0  0
   -2.1434    2.0625    0.0000 O   0  0  0  0  0  0  0  0  0  0  0  0
   -2.2296   -0.4080    0.0000 C   0  0  1  0  0  0  0  0  0  0  0  0
   -3.0366   -0.5795    0.0000 C   0  0  2  0  0  0  0  0  0  0  0  0
   -3.3722   -1.3332    0.0000 O   0  0  0  0  0  0  0  0  0  0  0  0
   -3.4491    0.1350    0.0000 C   0  0  2  0  0  0  0  0  0  0  0  0
   -2.8971    0.7481    0.0000 O   0  0  0  0  0  0  0  0  0  0  0  0
   -4.2696    0.2212    0.0000 C   0  0  0  0  0  0  0  0  0  0  0  0
   -1.6166   -0.9600    0.0000 O   0  0  0  0  0  0  0  0  0  0  0  0
  1  2  1  1  0  0  0
  2  3  1  0  0  0  0
  3  4  1  0  0  0  0
  4  5  2  0  0  0  0
  5  6  1  0  0  0  0
  6  7  1  0  0  0  0
  7  8  1  0  0  0  0
  8  9  1  0  0  0  0
  9 10  1  0  0  0  0
 10 11  1  0  0  0  0
 11 12  1  0  0  0  0
 12 13  1  0  0  0  0
  7 14  2  0  0  0  0
  5 15  1  0  0  0  0
 15 16  2  0  0  0  0
  2 16  1  0  0  0  0
 15 17  1  0  0  0  0
  3 18  2  0  0  0  0
  1 19  1  0  0  0  0
 19 20  1  0  0  0  0
 20 21  1  6  0  0  0
 20 22  1  0  0  0  0
 22 23  1  0  0  0  0
  1 23  1  0  0  0  0
 22 24  1  1  0  0  0
 19 25  1  6  0  0  0
M  END
>  <Name>
Capecitabine

>  <CAS>
154361-50-9

>  <Formula>
C15H22FN3O6

>  <MolWt>
359.35 

>  <Bioactivity>
Prodrug of 5-Fluorouracil (5-FU). Selectively activated in tumor cells by thymidine phosphorylase; inhibits DNA synthesis upon conversion to 5-FU. Orally available.

>  <Pathways>
DNA Damage/DNA Repair

>  <Target>
DNA/RNA Synthesis inhibitor

>  <Receptor>
Thymidylate synthase

>  <Reference>
1. Lv H, et al. Chin J Cancer Res. 2014 Dec; 26(6):692-7. 

$$$$
56211-40-6
  Mrv1561503291623562D          

 24 25  0  0  0  0            999 V2000
   -0.0000   -1.6500    0.0000 C   0  0  0  0  0  0  0  0  0  0  0  0
   -0.0000   -2.4750    0.0000 N   0  0  0  0  0  0  0  0  0  0  0  0
   -0.7145   -2.8875    0.0000 C   0  0  0  0  0  0  0  0  0  0  0  0
   -1.4289   -2.4750    0.0000 C   0  0  0  0  0  0  0  0  0  0  0  0
   -1.4289   -1.6500    0.0000 C   0  0  0  0  0  0  0  0  0  0  0  0
   -0.7145   -1.2375    0.0000 C   0  0  0  0  0  0  0  0  0  0  0  0
   -0.7145   -0.4125    0.0000 S   0  0  0  0  0  0  0  0  0  0  0  0
   -0.7145    0.4125    0.0000 N   0  0  0  0  0  0  0  0  0  0  0  0
    0.0000    0.8250    0.0000 C   0  0  0  0  0  0  0  0  0  0  0  0
    0.0000    1.6500    0.0000 N   0  0  0  0  0  0  0  0  0  0  0  0
    0.7145    2.0625    0.0000 C   0  0  0  0  0  0  0  0  0  0  0  0
    0.7145    2.8875    0.0000 C   0  0  0  0  0  0  0  0  0  0  0  0
    1.4289    1.6500    0.0000 C   0  0  0  0  0  0  0  0  0  0  0  0
    0.7145    0.4125    0.0000 O   0  0  0  0  0  0  0  0  0  0  0  0
   -1.5395   -0.4125    0.0000 O   0  0  0  0  0  0  0  0  0  0  0  0
    0.1105   -0.4125    0.0000 O   0  0  0  0  0  0  0  0  0  0  0  0
   -2.1434   -1.2375    0.0000 N   0  0  0  0  0  0  0  0  0  0  0  0
   -2.8579   -1.6500    0.0000 C   0  0  0  0  0  0  0  0  0  0  0  0
   -2.8579   -2.4750    0.0000 C   0  0  0  0  0  0  0  0  0  0  0  0
   -3.5724   -2.8875    0.0000 C   0  0  0  0  0  0  0  0  0  0  0  0
   -4.2868   -2.4750    0.0000 C   0  0  0  0  0  0  0  0  0  0  0  0
   -4.2868   -1.6500    0.0000 C   0  0  0  0  0  0  0  0  0  0  0  0
   -3.5724   -1.2375    0.0000 C   0  0  0  0  0  0  0  0  0  0  0  0
   -5.0013   -1.2375    0.0000 C   0  0  0  0  0  0  0  0  0  0  0  0
  1  2  2  0  0  0  0
  2  3  1  0  0  0  0
  3  4  2  0  0  0  0
  4  5  1  0  0  0  0
  5  6  2  0  0  0  0
  1  6  1  0  0  0  0
  6  7  1  0  0  0  0
  7  8  1  0  0  0  0
  8  9  1  0  0  0  0
  9 10  1  0  0  0  0
 10 11  1  0  0  0  0
 11 12  1  0  0  0  0
 11 13  1  0  0  0  0
  9 14  2  0  0  0  0
  7 15  2  0  0  0  0
  7 16  2  0  0  0  0
  5 17  1  0  0  0  0
 17 18  1  0  0  0  0
 18 19  2  0  0  0  0
 19 20  1  0  0  0  0
 20 21  2  0  0  0  0
 21 22  1  0  0  0  0
 22 23  2  0  0  0  0
 18 23  1  0  0  0  0
 22 24  1  0  0  0  0
M  END
>  <Name>
Torasemide

>  <CAS>
56211-40-6

>  <Formula>
C16H20N4O3S

>  <MolWt>
348.42 

>  <Bioactivity>
Torasemide (rINN) or torsemide (USAN) is a pyridine-sulfonylurea type loop diuretic mainly used in the management of edema associated with congestive heart failure. It is also used at low doses for the management of hypertension. It is marketed under the brand name Demadex.  

>  <Pathways>
Membrane Transporter/Ion Channel

>  <Target>
NKCC cotransporter inhibitor

>  <Receptor>
NKCC cotransportor

>  <Reference>
1. Gravez B, et al. PLoS One. 2013 Sep 9; 8(9):e73737. 

$$$$
78628-80-5
  Mrv1561503291623562D          

 24 23  0  0  0  0            999 V2000
    0.4125    0.0000    0.0000 H   0  3  0  0  0  0  0  0  0  0  0  0
    5.6275   -1.3125    0.0000 C   0  0  0  0  0  0  0  0  0  0  0  0
    4.9131   -1.7250    0.0000 C   0  0  0  0  0  0  0  0  0  0  0  0
    4.9131   -2.5500    0.0000 C   0  0  0  0  0  0  0  0  0  0  0  0
    5.6275   -2.9625    0.0000 C   0  0  0  0  0  0  0  0  0  0  0  0
    6.3420   -2.5500    0.0000 C   0  0  0  0  0  0  0  0  0  0  0  0
    6.3420   -1.7250    0.0000 C   0  0  0  0  0  0  0  0  0  0  0  0
    7.0565   -1.3125    0.0000 C   0  0  0  0  0  0  0  0  0  0  0  0
    7.7709   -1.7250    0.0000 C   0  0  0  0  0  0  0  0  0  0  0  0
    7.7709   -2.5500    0.0000 C   0  0  0  0  0  0  0  0  0  0  0  0
    7.0565   -2.9625    0.0000 C   0  0  0  0  0  0  0  0  0  0  0  0
    7.0565   -0.4875    0.0000 C   0  0  0  0  0  0  0  0  0  0  0  0
    6.3420   -0.0750    0.0000 N   0  0  0  0  0  0  0  0  0  0  0  0
    6.3420    0.7500    0.0000 C   0  0  0  0  0  0  0  0  0  0  0  0
    5.6275    1.1625    0.0000 C   0  0  0  0  0  0  0  0  0  0  0  0
    5.6275    1.9875    0.0000 C   0  0  0  0  0  0  0  0  0  0  0  0
    4.9131    2.4000    0.0000 C   0  0  0  0  0  0  0  0  0  0  0  0
    4.1986    2.8125    0.0000 C   0  0  0  0  0  0  0  0  0  0  0  0
    3.4841    3.2250    0.0000 C   0  0  0  0  0  0  0  0  0  0  0  0
    2.7696    3.6375    0.0000 C   0  0  0  0  0  0  0  0  0  0  0  0
    3.8966    3.9395    0.0000 C   0  0  0  0  0  0  0  0  0  0  0  0
    3.0716    2.5105    0.0000 C   0  0  0  0  0  0  0  0  0  0  0  0
    5.6275   -0.4875    0.0000 C   0  0  0  0  0  0  0  0  0  0  0  0
   -0.4125    0.0000    0.0000 Cl  0  5  0  0  0  0  0  0  0  0  0  0
  2  3  2  0  0  0  0
  3  4  1  0  0  0  0
  4  5  2  0  0  0  0
  5  6  1  0  0  0  0
  6  7  2  0  0  0  0
  2  7  1  0  0  0  0
  7  8  1  0  0  0  0
  8  9  2  0  0  0  0
  9 10  1  0  0  0  0
 10 11  2  0  0  0  0
  6 11  1  0  0  0  0
  8 12  1  0  0  0  0
 12 13  1  0  0  0  0
 13 14  1  0  0  0  0
 14 15  1  0  0  0  0
 15 16  2  0  0  0  0
 16 17  1  0  0  0  0
 17 18  3  0  0  0  0
 18 19  1  0  0  0  0
 19 20  1  0  0  0  0
 19 21  1  0  0  0  0
 19 22  1  0  0  0  0
 13 23  1  0  0  0  0
M  CHG  2   1   1  24  -1
M  END
>  <Name>
Terbinafine HCl

>  <CAS>
78628-80-5

>  <Formula>
C21H26ClN

>  <MolWt>
327.89 

>  <Bioactivity>
Terbinafine hydrochloride is a synthetic allylamine antifungal, which is highly active against dermatophytes, mold, other basic fungi, and some strains of yeast.

>  <Pathways>
Enzyme

>  <Target>
SMO inhibitor

>  <Receptor>
SMO

>  <Reference>
1. Sander CS, et al. Mycoses. 2002 Jun; 45(5-6):152-5. 

$$$$
27833-64-3
  Mrv1561503291623562D          

 31 33  0  0  0  0            999 V2000
    1.2055    0.1797    0.0000 C   0  0  0  0  0  0  0  0  0  0  0  0
    1.8103    0.7409    0.0000 C   0  0  0  0  0  0  0  0  0  0  0  0
    2.5986    0.4977    0.0000 Cl  0  0  0  0  0  0  0  0  0  0  0  0
    1.6267    1.5452    0.0000 C   0  0  0  0  0  0  0  0  0  0  0  0
    0.8384    1.7884    0.0000 C   0  0  0  0  0  0  0  0  0  0  0  0
    0.2336    1.2272    0.0000 C   0  0  0  0  0  0  0  0  0  0  0  0
    0.4172    0.4229    0.0000 C   0  0  0  0  0  0  0  0  0  0  0  0
   -0.0972   -0.2221    0.0000 C   0  0  0  0  0  0  0  0  0  0  0  0
   -0.9222   -0.2221    0.0000 N   0  0  0  0  0  0  0  0  0  0  0  0
   -1.4366    0.4229    0.0000 C   0  0  0  0  0  0  0  0  0  0  0  0
   -1.2530    1.2272    0.0000 C   0  0  0  0  0  0  0  0  0  0  0  0
   -1.8578    1.7884    0.0000 C   0  0  0  0  0  0  0  0  0  0  0  0
   -2.6461    1.5452    0.0000 C   0  0  0  0  0  0  0  0  0  0  0  0
   -2.8297    0.7409    0.0000 C   0  0  0  0  0  0  0  0  0  0  0  0
   -2.2249    0.1797    0.0000 C   0  0  0  0  0  0  0  0  0  0  0  0
   -0.5097    1.5852    0.0000 O   0  0  0  0  0  0  0  0  0  0  0  0
    0.2608   -0.9654    0.0000 N   0  0  0  0  0  0  0  0  0  0  0  0
    1.0834   -1.0270    0.0000 C   0  0  0  0  0  0  0  0  0  0  0  0
    1.4414   -1.7703    0.0000 C   0  0  0  0  0  0  0  0  0  0  0  0
    0.9767   -2.4520    0.0000 N   0  0  0  0  0  0  0  0  0  0  0  0
    1.3346   -3.1953    0.0000 C   0  0  0  0  0  0  0  0  0  0  0  0
    0.1540   -2.3903    0.0000 C   0  0  0  0  0  0  0  0  0  0  0  0
   -0.2040   -1.6470    0.0000 C   0  0  0  0  0  0  0  0  0  0  0  0
    6.6278    0.2063    0.0000 C   0  0  0  0  0  0  0  0  0  0  0  0
    5.9133   -0.2063    0.0000 C   0  0  0  0  0  0  0  0  0  0  0  0
    5.1988    0.2062    0.0000 C   0  0  0  0  0  0  0  0  0  0  0  0
    4.4844   -0.2063    0.0000 O   0  0  0  0  0  0  0  0  0  0  0  0
    5.1988    1.0312    0.0000 O   0  0  0  0  0  0  0  0  0  0  0  0
    7.3422   -0.2062    0.0000 C   0  0  0  0  0  0  0  0  0  0  0  0
    8.0567    0.2063    0.0000 O   0  0  0  0  0  0  0  0  0  0  0  0
    7.3422   -1.0312    0.0000 O   0  0  0  0  0  0  0  0  0  0  0  0
  1  2  2  0  0  0  0
  2  3  1  0  0  0  0
  2  4  1  0  0  0  0
  4  5  2  0  0  0  0
  5  6  1  0  0  0  0
  6  7  2  0  0  0  0
  1  7  1  0  0  0  0
  7  8  1  0  0  0  0
  8  9  2  0  0  0  0
  9 10  1  0  0  0  0
 10 11  2  0  0  0  0
 11 12  1  0  0  0  0
 12 13  2  0  0  0  0
 13 14  1  0  0  0  0
 14 15  2  0  0  0  0
 10 15  1  0  0  0  0
 11 16  1  0  0  0  0
  6 16  1  0  0  0  0
  8 17  1  0  0  0  0
 17 18  1  0  0  0  0
 18 19  1  0  0  0  0
 19 20  1  0  0  0  0
 20 21  1  0  0  0  0
 20 22  1  0  0  0  0
 22 23  1  0  0  0  0
 17 23  1  0  0  0  0
 24 25  1  0  0  0  0
 25 26  1  0  0  0  0
 26 27  1  0  0  0  0
 26 28  2  0  0  0  0
 24 29  1  0  0  0  0
 29 30  1  0  0  0  0
 29 31  2  0  0  0  0
M  END
>  <Name>
Loxapine succinate salt

>  <CAS>
27833-64-3

>  <Formula>
C18H18ClN3O7C4H6O4

>  <MolWt>
445.90 

>  <Bioactivity>
Loxapine Succinate is a D2DR and D4DR inhibitor, serotonergic receptor antagonist and also a dibenzoxazepine anti-psychotic agent.

>  <Pathways>
Neuroscience

>  <Target>
Dopamine Receptor antagonist;Serotonergic receptor antagonist

>  <Receptor>
Dopamine receptor;serotonergic receptor

>  <Reference>
1. Bhardwaj RM, et al. Acta Crystallogr C. 2013 Nov; 69(Pt 11):1273-8. 

$$$$
19767-45-4
  Mrv1561503291623562D          

  8  6  0  0  0  0            999 V2000
    2.4750   -0.0000    0.0000 C   0  0  0  0  0  0  0  0  0  0  0  0
    1.6500   -0.0000    0.0000 S   0  0  0  0  0  0  0  0  0  0  0  0
    1.6500    0.8250    0.0000 O   0  0  0  0  0  0  0  0  0  0  0  0
    1.6500   -0.8250    0.0000 O   0  0  0  0  0  0  0  0  0  0  0  0
    0.8250    0.0000    0.0000 O   0  5  0  0  0  0  0  0  0  0  0  0
    2.8875   -0.7145    0.0000 C   0  0  0  0  0  0  0  0  0  0  0  0
    3.7125   -0.7145    0.0000 S   0  0  0  0  0  0  0  0  0  0  0  0
    0.0000    0.0000    0.0000 Na  0  3  0  0  0  0  0  0  0  0  0  0
  1  2  1  0  0  0  0
  2  3  2  0  0  0  0
  2  4  2  0  0  0  0
  2  5  1  0  0  0  0
  1  6  1  0  0  0  0
  6  7  1  0  0  0  0
M  CHG  2   5  -1   8   1
M  END
>  <Name>
Mesna

>  <CAS>
19767-45-4

>  <Formula>
C2H5NaO3S2

>  <MolWt>
164.18 

>  <Bioactivity>
Mesna(Uromitexan, Mesnex), a sulfhydryl compound that is used to reduce the incidence of hemorrhagic cystitis associated with certain chemotherapeutic agents. Mesna is converted to a free thiol compound in the kidney, where it binds to and inactivates acrolein and other urotoxic metabolites of ifosfamide and cyclophosphamide, thereby reducing their toxic effects on the urinary tract during urinary excretion.

>  <Pathways>
Others

>  <Target>
Others

>  <Receptor>
Others

>  <Reference>
1. Kalcioglu MT, et al. Am J Otolaryngol. 2014 May-Jun;35(3):357-61. 

$$$$
3440-28-6
  Mrv1561503291623562D          

 14 14  0  0  0  0            999 V2000
    0.7145   -0.4125    0.0000 C   0  0  0  0  0  0  0  0  0  0  0  0
   -0.0000   -0.0000    0.0000 C   0  0  0  0  0  0  0  0  0  0  0  0
   -0.0000    0.8250    0.0000 C   0  0  0  0  0  0  0  0  0  0  0  0
    0.7145    1.2375    0.0000 C   0  0  0  0  0  0  0  0  0  0  0  0
    1.4289    0.8250    0.0000 C   0  0  0  0  0  0  0  0  0  0  0  0
    1.4289   -0.0000    0.0000 C   0  0  0  0  0  0  0  0  0  0  0  0
    2.1434   -0.4125    0.0000 C   0  0  0  0  0  0  0  0  0  0  0  0
    2.8579   -0.0000    0.0000 N   0  0  0  0  0  0  0  0  0  0  0  0
    3.5724   -0.4125    0.0000 C   0  0  0  0  0  0  0  0  0  0  0  0
    4.2868   -0.0000    0.0000 C   0  0  0  0  0  0  0  0  0  0  0  0
    5.0013   -0.4125    0.0000 C   0  0  0  0  0  0  0  0  0  0  0  0
    5.7158   -0.0000    0.0000 O   0  0  0  0  0  0  0  0  0  0  0  0
    5.0013   -1.2375    0.0000 O   0  0  0  0  0  0  0  0  0  0  0  0
    2.1434   -1.2375    0.0000 O   0  0  0  0  0  0  0  0  0  0  0  0
  1  2  2  0  0  0  0
  2  3  1  0  0  0  0
  3  4  2  0  0  0  0
  4  5  1  0  0  0  0
  5  6  2  0  0  0  0
  1  6  1  0  0  0  0
  6  7  1  0  0  0  0
  7  8  1  0  0  0  0
  8  9  1  0  0  0  0
  9 10  1  0  0  0  0
 10 11  1  0  0  0  0
 11 12  1  0  0  0  0
 11 13  2  0  0  0  0
  7 14  2  0  0  0  0
M  END
>  <Name>
Betamipron

>  <CAS>
3440-28-6

>  <Formula>
C10H11NO3

>  <MolWt>
193.20 

>  <Bioactivity>
Betamipron is a chemical compound which is used together with panipenem to inhibit panipenem uptake into the renal tubule and prevent nephrotoxicity.

>  <Pathways>
Others

>  <Target>
Others

>  <Receptor>
Others

>  <Reference>
1. Ohashi N, et al. J Infect Chemother, 2005, 11(1), 24-31.

$$$$
50-33-9
  Mrv1561503291623562D          

 23 25  0  0  0  0            999 V2000
    1.4289    0.0000    0.0000 C   0  0  0  0  0  0  0  0  0  0  0  0
    0.7145   -0.4125    0.0000 C   0  0  0  0  0  0  0  0  0  0  0  0
    0.7145   -1.2375    0.0000 N   0  0  0  0  0  0  0  0  0  0  0  0
    1.3819   -1.7224    0.0000 N   0  0  0  0  0  0  0  0  0  0  0  0
    1.1270   -2.5070    0.0000 C   0  0  0  0  0  0  0  0  0  0  0  0
    1.6119   -3.1745    0.0000 O   0  0  0  0  0  0  0  0  0  0  0  0
    0.3020   -2.5070    0.0000 C   0  0  0  0  0  0  0  0  0  0  0  0
    0.0470   -1.7224    0.0000 C   0  0  0  0  0  0  0  0  0  0  0  0
   -0.7376   -1.4675    0.0000 O   0  0  0  0  0  0  0  0  0  0  0  0
   -0.1830   -3.1745    0.0000 C   0  0  0  0  0  0  0  0  0  0  0  0
   -1.0034   -3.0882    0.0000 C   0  0  0  0  0  0  0  0  0  0  0  0
   -1.4884   -3.7557    0.0000 C   0  0  0  0  0  0  0  0  0  0  0  0
   -2.3088   -3.6695    0.0000 C   0  0  0  0  0  0  0  0  0  0  0  0
    2.1665   -1.4675    0.0000 C   0  0  0  0  0  0  0  0  0  0  0  0
    2.3381   -0.6605    0.0000 C   0  0  0  0  0  0  0  0  0  0  0  0
    3.1227   -0.4056    0.0000 C   0  0  0  0  0  0  0  0  0  0  0  0
    3.7358   -0.9576    0.0000 C   0  0  0  0  0  0  0  0  0  0  0  0
    3.5642   -1.7646    0.0000 C   0  0  0  0  0  0  0  0  0  0  0  0
    2.7796   -2.0195    0.0000 C   0  0  0  0  0  0  0  0  0  0  0  0
   -0.0000    0.0000    0.0000 C   0  0  0  0  0  0  0  0  0  0  0  0
   -0.0000    0.8250    0.0000 C   0  0  0  0  0  0  0  0  0  0  0  0
    0.7145    1.2375    0.0000 C   0  0  0  0  0  0  0  0  0  0  0  0
    1.4289    0.8250    0.0000 C   0  0  0  0  0  0  0  0  0  0  0  0
  1  2  2  0  0  0  0
  2  3  1  0  0  0  0
  3  4  1  0  0  0  0
  4  5  1  0  0  0  0
  5  6  2  0  0  0  0
  5  7  1  0  0  0  0
  7  8  1  0  0  0  0
  3  8  1  0  0  0  0
  8  9  2  0  0  0  0
  7 10  1  0  0  0  0
 10 11  1  0  0  0  0
 11 12  1  0  0  0  0
 12 13  1  0  0  0  0
  4 14  1  0  0  0  0
 14 15  2  0  0  0  0
 15 16  1  0  0  0  0
 16 17  2  0  0  0  0
 17 18  1  0  0  0  0
 18 19  2  0  0  0  0
 14 19  1  0  0  0  0
  2 20  1  0  0  0  0
 20 21  2  0  0  0  0
 21 22  1  0  0  0  0
 22 23  2  0  0  0  0
  1 23  1  0  0  0  0
M  END
>  <Name>
Phenylbutazone

>  <CAS>
50-33-9

>  <Formula>
C19H20N2O2

>  <MolWt>
308.38 

>  <Bioactivity>
Phenylbutazone(Butazolidin, Butatron) is used as a non-steroidal anti-inflammatory agent for the treatment of chronic pain, including the symptoms of arthritis. Its use is limited by such severe side effects as suppression of white blood cell production and aplastic anemia. 

>  <Pathways>
Neuroscience

>  <Target>
COX inhibitor

>  <Receptor>
Prostaglandin G/H synthase

>  <Reference>
1. Arifah AK, Lees P. J Vet Pharmacol Ther. 2002 Aug;25(4):299-309. 

$$$$
61-78-9
  Mrv1561503291623562D          

 14 14  0  0  0  0            999 V2000
    0.7145   -0.4125    0.0000 C   0  0  0  0  0  0  0  0  0  0  0  0
   -0.0000   -0.0000    0.0000 C   0  0  0  0  0  0  0  0  0  0  0  0
   -0.0000    0.8250    0.0000 C   0  0  0  0  0  0  0  0  0  0  0  0
    0.7145    1.2375    0.0000 C   0  0  0  0  0  0  0  0  0  0  0  0
    1.4289    0.8250    0.0000 C   0  0  0  0  0  0  0  0  0  0  0  0
    1.4289   -0.0000    0.0000 C   0  0  0  0  0  0  0  0  0  0  0  0
    2.1434   -0.4125    0.0000 C   0  0  0  0  0  0  0  0  0  0  0  0
    2.8579   -0.0000    0.0000 N   0  0  0  0  0  0  0  0  0  0  0  0
    3.5724   -0.4125    0.0000 C   0  0  0  0  0  0  0  0  0  0  0  0
    4.2868   -0.0000    0.0000 C   0  0  0  0  0  0  0  0  0  0  0  0
    5.0013   -0.4125    0.0000 O   0  0  0  0  0  0  0  0  0  0  0  0
    4.2868    0.8250    0.0000 O   0  0  0  0  0  0  0  0  0  0  0  0
    2.1434   -1.2375    0.0000 O   0  0  0  0  0  0  0  0  0  0  0  0
   -0.7145    1.2375    0.0000 N   0  0  0  0  0  0  0  0  0  0  0  0
  1  2  2  0  0  0  0
  2  3  1  0  0  0  0
  3  4  2  0  0  0  0
  4  5  1  0  0  0  0
  5  6  2  0  0  0  0
  1  6  1  0  0  0  0
  6  7  1  0  0  0  0
  7  8  1  0  0  0  0
  8  9  1  0  0  0  0
  9 10  1  0  0  0  0
 10 11  1  0  0  0  0
 10 12  2  0  0  0  0
  7 13  2  0  0  0  0
  3 14  1  0  0  0  0
M  END
>  <Name>
4-Aminohippuric Acid

>  <CAS>
61-78-9

>  <Formula>
C9H10N2O3

>  <MolWt>
194.19 

>  <Bioactivity>
4-Aminohippuric acid is a typical substrate of organic anion transport systems.

>  <Pathways>
Amino Acids & Building Blocks

>  <Target>
Amino Acids and Derivatives

>  <Receptor>
Amino Acids and Derivatives

>  <Reference>
1. Sekine T, et al. J Biol Chem, 1997, 272(30), 18526-18529.

$$$$
6402-23-9
  Mrv1561503291623562D          

 26 26  0  0  0  0            999 V2000
   -1.0905   -0.5428    0.0000 C   0  0  0  0  0  0  0  0  0  0  0  0
   -1.8050   -0.1303    0.0000 C   0  0  0  0  0  0  0  0  0  0  0  0
   -2.5195   -0.5428    0.0000 O   0  0  0  0  0  0  0  0  0  0  0  0
   -2.5195   -1.3678    0.0000 C   0  0  0  0  0  0  0  0  0  0  0  0
   -3.2339   -1.7803    0.0000 C   0  0  0  0  0  0  0  0  0  0  0  0
   -1.8050    0.6947    0.0000 C   0  0  0  0  0  0  0  0  0  0  0  0
   -1.0905    1.1072    0.0000 C   0  0  0  0  0  0  0  0  0  0  0  0
   -0.3760    0.6947    0.0000 C   0  0  0  0  0  0  0  0  0  0  0  0
    0.3384    1.1072    0.0000 N   0  0  0  0  0  0  0  0  0  0  0  0
    1.0529    0.6947    0.0000 C   0  0  0  0  0  0  0  0  0  0  0  0
    1.7674    1.1072    0.0000 C   0  0  0  0  0  0  0  0  0  0  0  0
    2.4818    0.6947    0.0000 C   0  0  0  0  0  0  0  0  0  0  0  0
    2.4818   -0.1303    0.0000 C   0  0  0  0  0  0  0  0  0  0  0  0
    1.7674   -0.5428    0.0000 C   0  0  0  0  0  0  0  0  0  0  0  0
    1.0529   -0.1303    0.0000 C   0  0  0  0  0  0  0  0  0  0  0  0
    0.3384   -0.5428    0.0000 C   0  0  0  0  0  0  0  0  0  0  0  0
   -0.3760   -0.1303    0.0000 C   0  0  0  0  0  0  0  0  0  0  0  0
    0.3384   -1.3678    0.0000 N   0  0  0  0  0  0  0  0  0  0  0  0
    3.1963    1.1072    0.0000 N   0  0  0  0  0  0  0  0  0  0  0  0
    5.9070    1.0717    0.0000 C   0  0  0  0  0  0  0  0  0  0  0  0
    6.3195    0.3572    0.0000 C   0  0  0  0  0  0  0  0  0  0  0  0
    7.1445    0.3572    0.0000 O   0  0  0  0  0  0  0  0  0  0  0  0
    5.9070   -0.3572    0.0000 C   0  0  0  0  0  0  0  0  0  0  0  0
    6.3195   -1.0717    0.0000 O   0  0  0  0  0  0  0  0  0  0  0  0
    5.0820   -0.3572    0.0000 O   0  0  0  0  0  0  0  0  0  0  0  0
    0.0000   -3.4303    0.0000 O   0  0  0  0  0  0  0  0  0  0  0  0
  1  2  2  0  0  0  0
  2  3  1  0  0  0  0
  3  4  1  0  0  0  0
  4  5  1  0  0  0  0
  2  6  1  0  0  0  0
  6  7  2  0  0  0  0
  7  8  1  0  0  0  0
  8  9  2  0  0  0  0
  9 10  1  0  0  0  0
 10 11  2  0  0  0  0
 11 12  1  0  0  0  0
 12 13  2  0  0  0  0
 13 14  1  0  0  0  0
 14 15  2  0  0  0  0
 10 15  1  0  0  0  0
 15 16  1  0  0  0  0
 16 17  2  0  0  0  0
  1 17  1  0  0  0  0
  8 17  1  0  0  0  0
 16 18  1  0  0  0  0
 12 19  1  0  0  0  0
 20 21  1  0  0  0  0
 21 22  1  0  0  0  0
 21 23  1  0  0  0  0
 23 24  2  0  0  0  0
 23 25  1  0  0  0  0
M  END
>  <Name>
Ethacridine lactate monohydrate

>  <CAS>
6402-23-9

>  <Formula>
C18H21N3O4

>  <MolWt>
361.40 

>  <Bioactivity>
Ethacridine lactate monohydrate is an aromatic organic compound based on acridine used as an antiseptic agent.

>  <Pathways>
Others

>  <Target>
Others

>  <Receptor>
Others

>  <Reference>
1. Junka A, et al. Int Wound J, 2013.

$$$$
81732-46-9
  Mrv1561503291623562D          

 28 26  0  0  0  0            999 V2000
    0.4125    0.0000    0.0000 H   0  3  0  0  0  0  0  0  0  0  0  0
    6.3420    0.4601    0.0000 C   0  0  0  0  0  0  0  0  0  0  0  0
    6.3420   -0.3649    0.0000 C   0  0  0  0  0  0  0  0  0  0  0  0
    7.0565   -0.7774    0.0000 C   0  0  0  0  0  0  0  0  0  0  0  0
    7.0565   -1.6024    0.0000 O   0  0  0  0  0  0  0  0  0  0  0  0
    7.7709   -0.3649    0.0000 C   0  0  0  0  0  0  0  0  0  0  0  0
    8.4854   -0.7774    0.0000 N   0  0  0  0  0  0  0  0  0  0  0  0
    9.1999   -0.3649    0.0000 C   0  0  0  0  0  0  0  0  0  0  0  0
    9.9144    0.0476    0.0000 C   0  0  0  0  0  0  0  0  0  0  0  0
    8.7874    0.3496    0.0000 C   0  0  0  0  0  0  0  0  0  0  0  0
    9.6124   -1.0794    0.0000 C   0  0  0  0  0  0  0  0  0  0  0  0
    5.6275   -0.7774    0.0000 C   0  0  0  0  0  0  0  0  0  0  0  0
    4.9131   -0.3649    0.0000 C   0  0  0  0  0  0  0  0  0  0  0  0
    4.1986   -0.7774    0.0000 O   0  0  0  0  0  0  0  0  0  0  0  0
    4.1986   -1.6024    0.0000 C   0  0  0  0  0  0  0  0  0  0  0  0
    4.9131   -2.0149    0.0000 O   0  0  0  0  0  0  0  0  0  0  0  0
    3.4841   -2.0149    0.0000 N   0  0  0  0  0  0  0  0  0  0  0  0
    3.4841   -2.8399    0.0000 C   0  0  0  0  0  0  0  0  0  0  0  0
    2.7696   -1.6024    0.0000 C   0  0  0  0  0  0  0  0  0  0  0  0
    4.9131    0.4601    0.0000 C   0  0  0  0  0  0  0  0  0  0  0  0
    5.6275    0.8726    0.0000 C   0  0  0  0  0  0  0  0  0  0  0  0
    5.6275    1.6976    0.0000 O   0  0  0  0  0  0  0  0  0  0  0  0
    6.3420    2.1101    0.0000 C   0  0  0  0  0  0  0  0  0  0  0  0
    7.0565    1.6976    0.0000 O   0  0  0  0  0  0  0  0  0  0  0  0
    6.3420    2.9351    0.0000 N   0  0  0  0  0  0  0  0  0  0  0  0
    5.6275    3.3476    0.0000 C   0  0  0  0  0  0  0  0  0  0  0  0
    7.0565    3.3476    0.0000 C   0  0  0  0  0  0  0  0  0  0  0  0
   -0.4125    0.0000    0.0000 Cl  0  5  0  0  0  0  0  0  0  0  0  0
  2  3  2  0  0  0  0
  3  4  1  0  0  0  0
  4  5  1  0  0  0  0
  4  6  1  0  0  0  0
  6  7  1  0  0  0  0
  7  8  1  0  0  0  0
  8  9  1  0  0  0  0
  8 10  1  0  0  0  0
  8 11  1  0  0  0  0
  3 12  1  0  0  0  0
 12 13  2  0  0  0  0
 13 14  1  0  0  0  0
 14 15  1  0  0  0  0
 15 16  2  0  0  0  0
 15 17  1  0  0  0  0
 17 18  1  0  0  0  0
 17 19  1  0  0  0  0
 13 20  1  0  0  0  0
 20 21  2  0  0  0  0
  2 21  1  0  0  0  0
 21 22  1  0  0  0  0
 22 23  1  0  0  0  0
 23 24  2  0  0  0  0
 23 25  1  0  0  0  0
 25 26  1  0  0  0  0
 25 27  1  0  0  0  0
M  CHG  2   1   1  28  -1
M  END
>  <Name>
Bambuterol HCl

>  <CAS>
81732-46-9

>  <Formula>
C18H30ClN3O5

>  <MolWt>
403.91 

>  <Bioactivity>
Bambuterol is a long acting beta-adrenoceptor agonist used in the treatment of asthma. It is a prodrug of terbutaline. 

>  <Pathways>
GPCR/G Protein

>  <Target>
Adrenergic Receptor antagonist;ChE inhibitor

>  <Receptor>
?-adrenergic receptor;ChE

>  <Reference>
1. Rosberg B, et al. Eur J Clin Pharmacol. 1993; 45(2):147-50. 

$$$$
T1451
  Mrv1561503291623562D          

 53 58  0  0  1  0            999 V2000
   -0.4122   -1.6976    0.0000 C   0  0  2  0  0  0  0  0  0  0  0  0
    0.3023   -1.2851    0.0000 N   0  0  0  0  0  0  0  0  0  0  0  0
    0.3023   -0.4601    0.0000 C   0  0  0  0  0  0  0  0  0  0  0  0
   -0.4122   -0.0476    0.0000 C   0  0  0  0  0  0  0  0  0  0  0  0
   -1.1267   -0.4601    0.0000 O   0  0  0  0  0  0  0  0  0  0  0  0
   -1.1267   -1.2851    0.0000 C   0  0  0  0  0  0  0  0  0  0  0  0
   -0.4122    0.7774    0.0000 C   0  0  0  0  0  0  0  0  0  0  0  0
    0.3023    1.1899    0.0000 C   0  0  0  0  0  0  0  0  0  0  0  0
    0.3023    2.0149    0.0000 F   0  0  0  0  0  0  0  0  0  0  0  0
    1.0167    0.7774    0.0000 C   0  0  0  0  0  0  0  0  0  0  0  0
    1.0167   -0.0476    0.0000 C   0  0  0  0  0  0  0  0  0  0  0  0
    1.7312   -0.4601    0.0000 C   0  0  0  0  0  0  0  0  0  0  0  0
    2.4457   -0.0476    0.0000 O   0  0  0  0  0  0  0  0  0  0  0  0
    1.7312   -1.2851    0.0000 C   0  0  0  0  0  0  0  0  0  0  0  0
    1.0167   -1.6976    0.0000 C   0  0  0  0  0  0  0  0  0  0  0  0
    2.4457   -1.6976    0.0000 C   0  0  0  0  0  0  0  0  0  0  0  0
    2.4457   -2.5226    0.0000 O   0  0  0  0  0  0  0  0  0  0  0  0
    3.1602   -1.2851    0.0000 O   0  0  0  0  0  0  0  0  0  0  0  0
   -1.1267    1.1899    0.0000 N   0  0  0  0  0  0  0  0  0  0  0  0
   -1.8411    0.7774    0.0000 C   0  0  0  0  0  0  0  0  0  0  0  0
   -2.5556    1.1899    0.0000 C   0  0  0  0  0  0  0  0  0  0  0  0
   -2.5556    2.0149    0.0000 N   0  0  0  0  0  0  0  0  0  0  0  0
   -1.8411    2.4274    0.0000 C   0  0  0  0  0  0  0  0  0  0  0  0
   -1.1267    2.0149    0.0000 C   0  0  0  0  0  0  0  0  0  0  0  0
   -3.2701    2.4274    0.0000 C   0  0  0  0  0  0  0  0  0  0  0  0
   -0.4122   -2.5226    0.0000 C   0  0  0  0  0  0  0  0  0  0  0  0
    8.3752   -1.6976    0.0000 C   0  0  2  0  0  0  0  0  0  0  0  0
    9.0897   -1.2851    0.0000 N   0  0  0  0  0  0  0  0  0  0  0  0
    9.0897   -0.4601    0.0000 C   0  0  0  0  0  0  0  0  0  0  0  0
    8.3752   -0.0476    0.0000 C   0  0  0  0  0  0  0  0  0  0  0  0
    7.6607   -0.4601    0.0000 O   0  0  0  0  0  0  0  0  0  0  0  0
    7.6607   -1.2851    0.0000 C   0  0  0  0  0  0  0  0  0  0  0  0
    8.3752    0.7774    0.0000 C   0  0  0  0  0  0  0  0  0  0  0  0
    9.0897    1.1899    0.0000 C   0  0  0  0  0  0  0  0  0  0  0  0
    9.0897    2.0149    0.0000 F   0  0  0  0  0  0  0  0  0  0  0  0
    9.8041    0.7774    0.0000 C   0  0  0  0  0  0  0  0  0  0  0  0
    9.8041   -0.0476    0.0000 C   0  0  0  0  0  0  0  0  0  0  0  0
   10.5186   -0.4601    0.0000 C   0  0  0  0  0  0  0  0  0  0  0  0
   11.2331   -0.0476    0.0000 O   0  0  0  0  0  0  0  0  0  0  0  0
   10.5186   -1.2851    0.0000 C   0  0  0  0  0  0  0  0  0  0  0  0
    9.8041   -1.6976    0.0000 C   0  0  0  0  0  0  0  0  0  0  0  0
   11.2331   -1.6976    0.0000 C   0  0  0  0  0  0  0  0  0  0  0  0
   11.2331   -2.5226    0.0000 O   0  0  0  0  0  0  0  0  0  0  0  0
   11.9475   -1.2851    0.0000 O   0  0  0  0  0  0  0  0  0  0  0  0
    7.6607    1.1899    0.0000 N   0  0  0  0  0  0  0  0  0  0  0  0
    6.9462    0.7774    0.0000 C   0  0  0  0  0  0  0  0  0  0  0  0
    6.2318    1.1899    0.0000 C   0  0  0  0  0  0  0  0  0  0  0  0
    6.2318    2.0149    0.0000 N   0  0  0  0  0  0  0  0  0  0  0  0
    6.9462    2.4274    0.0000 C   0  0  0  0  0  0  0  0  0  0  0  0
    7.6607    2.0149    0.0000 C   0  0  0  0  0  0  0  0  0  0  0  0
    5.5173    2.4274    0.0000 C   0  0  0  0  0  0  0  0  0  0  0  0
    8.3752   -2.5226    0.0000 C   0  0  0  0  0  0  0  0  0  0  0  0
    0.0000   -4.1726    0.0000 O   0  0  0  0  0  0  0  0  0  0  0  0
  1  2  1  0  0  0  0
  2  3  1  0  0  0  0
  3  4  2  0  0  0  0
  4  5  1  0  0  0  0
  5  6  1  0  0  0  0
  1  6  1  0  0  0  0
  4  7  1  0  0  0  0
  7  8  2  0  0  0  0
  8  9  1  0  0  0  0
  8 10  1  0  0  0  0
 10 11  2  0  0  0  0
  3 11  1  0  0  0  0
 11 12  1  0  0  0  0
 12 13  2  0  0  0  0
 12 14  1  0  0  0  0
 14 15  2  0  0  0  0
  2 15  1  0  0  0  0
 14 16  1  0  0  0  0
 16 17  1  0  0  0  0
 16 18  2  0  0  0  0
  7 19  1  0  0  0  0
 19 20  1  0  0  0  0
 20 21  1  0  0  0  0
 21 22  1  0  0  0  0
 22 23  1  0  0  0  0
 23 24  1  0  0  0  0
 19 24  1  0  0  0  0
 22 25  1  0  0  0  0
  1 26  1  1  0  0  0
 27 28  1  0  0  0  0
 28 29  1  0  0  0  0
 29 30  2  0  0  0  0
 30 31  1  0  0  0  0
 31 32  1  0  0  0  0
 27 32  1  0  0  0  0
 30 33  1  0  0  0  0
 33 34  2  0  0  0  0
 34 35  1  0  0  0  0
 34 36  1  0  0  0  0
 36 37  2  0  0  0  0
 29 37  1  0  0  0  0
 37 38  1  0  0  0  0
 38 39  2  0  0  0  0
 38 40  1  0  0  0  0
 40 41  2  0  0  0  0
 28 41  1  0  0  0  0
 40 42  1  0  0  0  0
 42 43  1  0  0  0  0
 42 44  2  0  0  0  0
 33 45  1  0  0  0  0
 45 46  1  0  0  0  0
 46 47  1  0  0  0  0
 47 48  1  0  0  0  0
 48 49  1  0  0  0  0
 49 50  1  0  0  0  0
 45 50  1  0  0  0  0
 48 51  1  0  0  0  0
 27 52  1  1  0  0  0
M  END
>  <Name>
Levofloxacin HCL

>  <CAS>
138199-71-0

>  <Formula>
C18H20FN3O4

>  <MolWt>
397.83 

>  <Bioactivity>
Levofloxacin is a Quinolone Antimicrobial. The chemical classification of levofloxacin is Quinolones.

>  <Pathways>
DNA Damage/DNA Repair

>  <Target>
DNA gyrase inhibitor;Topoisomerase inhibitor

>  <Receptor>
DNA gyrase;topoisomerase II, IV

>  <Reference>
1. Schmitz FJ, et al. J Antimicrob Chemother. 1998 Apr;41(4):481-4. 

$$$$
67-92-5
  Mrv1561503291623562D          

 24 23  0  0  0  0            999 V2000
    0.4125    0.0000    0.0000 H   0  3  0  0  0  0  0  0  0  0  0  0
    6.2394    0.0063    0.0000 C   0  0  0  0  0  0  0  0  0  0  0  0
    5.4144    0.0063    0.0000 O   0  0  0  0  0  0  0  0  0  0  0  0
    5.0019    0.7207    0.0000 C   0  0  0  0  0  0  0  0  0  0  0  0
    5.4144    1.4352    0.0000 O   0  0  0  0  0  0  0  0  0  0  0  0
    4.1769    0.7207    0.0000 C   0  0  0  0  0  0  0  0  0  0  0  0
    3.4016    0.4386    0.0000 C   0  0  0  0  0  0  0  0  0  0  0  0
    2.7696    0.9689    0.0000 C   0  0  0  0  0  0  0  0  0  0  0  0
    2.9129    1.7813    0.0000 C   0  0  0  0  0  0  0  0  0  0  0  0
    3.6881    2.0635    0.0000 C   0  0  0  0  0  0  0  0  0  0  0  0
    4.3201    1.5332    0.0000 C   0  0  0  0  0  0  0  0  0  0  0  0
    4.3201   -0.0917    0.0000 C   0  0  0  0  0  0  0  0  0  0  0  0
    5.0954   -0.3739    0.0000 C   0  0  0  0  0  0  0  0  0  0  0  0
    5.2386   -1.1864    0.0000 C   0  0  0  0  0  0  0  0  0  0  0  0
    4.6067   -1.7167    0.0000 C   0  0  0  0  0  0  0  0  0  0  0  0
    3.8314   -1.4345    0.0000 C   0  0  0  0  0  0  0  0  0  0  0  0
    3.6881   -0.6220    0.0000 C   0  0  0  0  0  0  0  0  0  0  0  0
    6.6519   -0.7082    0.0000 C   0  0  0  0  0  0  0  0  0  0  0  0
    7.4769   -0.7082    0.0000 N   0  0  0  0  0  0  0  0  0  0  0  0
    7.8894   -1.4227    0.0000 C   0  0  0  0  0  0  0  0  0  0  0  0
    8.7144   -1.4227    0.0000 C   0  0  0  0  0  0  0  0  0  0  0  0
    7.8894    0.0063    0.0000 C   0  0  0  0  0  0  0  0  0  0  0  0
    8.7144    0.0063    0.0000 C   0  0  0  0  0  0  0  0  0  0  0  0
   -0.4125    0.0000    0.0000 Cl  0  5  0  0  0  0  0  0  0  0  0  0
  2  3  1  0  0  0  0
  3  4  1  0  0  0  0
  4  5  2  0  0  0  0
  4  6  1  0  0  0  0
  6  7  1  0  0  0  0
  7  8  1  0  0  0  0
  8  9  1  0  0  0  0
  9 10  1  0  0  0  0
 10 11  1  0  0  0  0
  6 11  1  0  0  0  0
  6 12  1  0  0  0  0
 12 13  1  0  0  0  0
 13 14  1  0  0  0  0
 14 15  1  0  0  0  0
 15 16  1  0  0  0  0
 16 17  1  0  0  0  0
 12 17  1  0  0  0  0
  2 18  1  0  0  0  0
 18 19  1  0  0  0  0
 19 20  1  0  0  0  0
 20 21  1  0  0  0  0
 19 22  1  0  0  0  0
 22 23  1  0  0  0  0
M  CHG  2   1   1  24  -1
M  END
>  <Name>
Dicyclomine HCl

>  <CAS>
67-92-5

>  <Formula>
C19H36ClNO2

>  <MolWt>
345.95 

>  <Bioactivity>
A muscarinic antagonist used as an antispasmodic and in urinary incontinence. It has little effect on glandular secretion or the cardiovascular system. It does have some local anesthetic properties and is used in gastrointestinal, biliary, and urinary tract spasms. 

>  <Pathways>
Neuroscience

>  <Target>
AChR antagonist

>  <Receptor>
Muscarinic AChR

>  <Reference>
1. Jin CH, et al. J Neurosci Res. 2009 Dec;87(16):3658-70.

$$$$
1229-29-4
  Mrv1561503291623562D          

 23 23  0  0  0  0            999 V2000
    0.4125    0.0000    0.0000 H   0  3  0  0  0  0  0  0  0  0  0  0
    4.2795    0.3849    0.0000 C   0  0  0  0  0  0  0  0  0  0  0  0
    4.8842   -0.1763    0.0000 C   0  0  0  0  0  0  0  0  0  0  0  0
    5.6275    0.1817    0.0000 C   0  0  0  0  0  0  0  0  0  0  0  0
    6.3708   -0.1763    0.0000 C   0  0  0  0  0  0  0  0  0  0  0  0
    6.9756    0.3849    0.0000 C   0  0  0  0  0  0  0  0  0  0  0  0
    7.7639    0.1417    0.0000 C   0  0  0  0  0  0  0  0  0  0  0  0
    7.9475   -0.6626    0.0000 C   0  0  0  0  0  0  0  0  0  0  0  0
    7.3428   -1.2237    0.0000 C   0  0  0  0  0  0  0  0  0  0  0  0
    6.5544   -0.9806    0.0000 C   0  0  0  0  0  0  0  0  0  0  0  0
    6.0400   -1.6256    0.0000 O   0  0  0  0  0  0  0  0  0  0  0  0
    5.2150   -1.6256    0.0000 C   0  0  0  0  0  0  0  0  0  0  0  0
    4.7006   -0.9806    0.0000 C   0  0  0  0  0  0  0  0  0  0  0  0
    3.9123   -1.2237    0.0000 C   0  0  0  0  0  0  0  0  0  0  0  0
    3.3075   -0.6626    0.0000 C   0  0  0  0  0  0  0  0  0  0  0  0
    3.4911    0.1417    0.0000 C   0  0  0  0  0  0  0  0  0  0  0  0
    5.6275    1.0067    0.0000 C   0  0  0  0  0  0  0  0  0  0  0  0
    4.9131    1.4192    0.0000 C   0  0  0  0  0  0  0  0  0  0  0  0
    4.1986    1.0067    0.0000 C   0  0  0  0  0  0  0  0  0  0  0  0
    3.4841    1.4192    0.0000 N   0  0  0  0  0  0  0  0  0  0  0  0
    2.7696    1.0067    0.0000 C   0  0  0  0  0  0  0  0  0  0  0  0
    3.4841    2.2442    0.0000 C   0  0  0  0  0  0  0  0  0  0  0  0
   -0.4125    0.0000    0.0000 Cl  0  5  0  0  0  0  0  0  0  0  0  0
  2  3  2  0  0  0  0
  3  4  1  0  0  0  0
  4  5  1  0  0  0  0
  5  6  2  0  0  0  0
  6  7  1  0  0  0  0
  7  8  2  0  0  0  0
  8  9  1  0  0  0  0
  9 10  2  0  0  0  0
  5 10  1  0  0  0  0
 10 11  1  0  0  0  0
 11 12  1  0  0  0  0
 12 13  1  0  0  0  0
  3 13  1  0  0  0  0
 13 14  2  0  0  0  0
 14 15  1  0  0  0  0
 15 16  2  0  0  0  0
  2 16  1  0  0  0  0
  4 17  2  0  0  0  0
 17 18  1  0  0  0  0
 18 19  1  0  0  0  0
 19 20  1  0  0  0  0
 20 21  1  0  0  0  0
 20 22  1  0  0  0  0
M  CHG  2   1   1  23  -1
M  END
>  <Name>
Doxepin HCl

>  <CAS>
1229-29-4

>  <Formula>
C19H22ClNO

>  <MolWt>
315.84 

>  <Bioactivity>
A dibenzoxepin tricyclic compound. It displays a range of pharmacological actions including maintaining adrenergic innervation. Its mechanism of action is not fully understood, but it appears to block reuptake of monoaminergic neurotransmitters into presynaptic terminals. It also possesses anticholinergic activity and modulates antagonism of histamine H(1)- and H(2)-receptors.  

>  <Pathways>
Neuroscience

>  <Target>
AChR antagonist;Histamine Receptor;5-HT receptor antagonist;Dopamine Receptor antagonist;Adrenergic Receptor antagonist

>  <Receptor>
Muscarinic AChR;Sodium-dependent noradrenaline transporter;Sodium-dependent serotonin transporter; Histamine receptor;5-HT Receptor;Dopamine receptor;Adrenergic receptor

>  <Reference>
1. Ehlert FJ, et al. J Pharmacol Exp Ther. 1990 Apr;253(1):13-9.

$$$$
T1550
  Mrv1561503291623562D          

 21 21  0  0  1  0            999 V2000
    4.6184   -2.2836    0.0000 C   0  0  2  0  0  0  0  0  0  0  0  0
    5.4434   -2.2836    0.0000 C   0  0  0  0  0  0  0  0  0  0  0  0
    5.8559   -1.5691    0.0000 C   0  0  0  0  0  0  0  0  0  0  0  0
    6.6809   -1.5691    0.0000 C   0  0  0  0  0  0  0  0  0  0  0  0
    7.0934   -2.2836    0.0000 C   0  0  0  0  0  0  0  0  0  0  0  0
    6.6809   -2.9980    0.0000 C   0  0  0  0  0  0  0  0  0  0  0  0
    5.8559   -2.9980    0.0000 C   0  0  0  0  0  0  0  0  0  0  0  0
    7.9184   -2.2836    0.0000 S   0  0  0  0  0  0  0  0  0  0  0  0
    8.7434   -2.2836    0.0000 C   0  0  0  0  0  0  0  0  0  0  0  0
    7.9184   -1.4586    0.0000 O   0  0  0  0  0  0  0  0  0  0  0  0
    7.9184   -3.1086    0.0000 O   0  0  0  0  0  0  0  0  0  0  0  0
    4.2059   -2.9980    0.0000 C   0  0  2  0  0  0  0  0  0  0  0  0
    3.3809   -2.9980    0.0000 N   0  0  0  0  0  0  0  0  0  0  0  0
    2.9684   -3.7125    0.0000 C   0  0  0  0  0  0  0  0  0  0  0  0
    2.1434   -3.7125    0.0000 C   0  0  0  0  0  0  0  0  0  0  0  0
    1.7309   -4.4270    0.0000 Cl  0  0  0  0  0  0  0  0  0  0  0  0
    1.7309   -2.9980    0.0000 Cl  0  0  0  0  0  0  0  0  0  0  0  0
    3.3809   -4.4270    0.0000 O   0  0  0  0  0  0  0  0  0  0  0  0
    4.6184   -3.7125    0.0000 C   0  0  0  0  0  0  0  0  0  0  0  0
    4.2059   -4.4270    0.0000 O   0  0  0  0  0  0  0  0  0  0  0  0
    4.2059   -1.5691    0.0000 O   0  0  0  0  0  0  0  0  0  0  0  0
  1  2  1  0  0  0  0
  2  3  2  0  0  0  0
  3  4  1  0  0  0  0
  4  5  2  0  0  0  0
  5  6  1  0  0  0  0
  6  7  2  0  0  0  0
  2  7  1  0  0  0  0
  5  8  1  0  0  0  0
  8  9  1  0  0  0  0
  8 10  2  0  0  0  0
  8 11  2  0  0  0  0
  1 12  1  0  0  0  0
 12 13  1  1  0  0  0
 13 14  1  0  0  0  0
 14 15  1  0  0  0  0
 15 16  1  0  0  0  0
 15 17  1  0  0  0  0
 14 18  2  0  0  0  0
 12 19  1  0  0  0  0
 19 20  1  0  0  0  0
  1 21  1  6  0  0  0
M  END
>  <Name>
Thiamphenicol

>  <CAS>
15318-45-3

>  <Formula>
C12H15Cl2NO5S

>  <MolWt>
356.22 

>  <Bioactivity>
A methylsulfonyl analog of CHLORAMPHENICOL. It is an antibiotic and immunosuppressive agent.

>  <Pathways>
Microbiology & Virology

>  <Target>
Antibiotic

>  <Receptor>
Others

>  <Reference>
1. Berman HM, et al. Nucleic Acids Res. 2000 Jan 1; 28(1): 235-42.

$$$$
15307-79-6
  Mrv1561503291623562D          

 20 20  0  0  0  0            999 V2000
   -1.4289   -2.4750    0.0000 C   0  0  0  0  0  0  0  0  0  0  0  0
   -1.4289   -1.6500    0.0000 C   0  0  0  0  0  0  0  0  0  0  0  0
   -0.7145   -1.2375    0.0000 C   0  0  0  0  0  0  0  0  0  0  0  0
   -0.0000   -1.6500    0.0000 C   0  0  0  0  0  0  0  0  0  0  0  0
   -0.0000   -2.4750    0.0000 C   0  0  0  0  0  0  0  0  0  0  0  0
   -0.7145   -2.8875    0.0000 C   0  0  0  0  0  0  0  0  0  0  0  0
   -0.7145   -0.4125    0.0000 C   0  0  0  0  0  0  0  0  0  0  0  0
   -0.0000    0.0000    0.0000 C   0  0  0  0  0  0  0  0  0  0  0  0
    0.7145   -0.4125    0.0000 O   0  0  0  0  0  0  0  0  0  0  0  0
    0.0000    0.8250    0.0000 O   0  5  0  0  0  0  0  0  0  0  0  0
   -2.1434   -1.2375    0.0000 N   0  0  0  0  0  0  0  0  0  0  0  0
   -2.8579   -1.6500    0.0000 C   0  0  0  0  0  0  0  0  0  0  0  0
   -2.8579   -2.4750    0.0000 C   0  0  0  0  0  0  0  0  0  0  0  0
   -3.5724   -2.8875    0.0000 C   0  0  0  0  0  0  0  0  0  0  0  0
   -4.2868   -2.4750    0.0000 C   0  0  0  0  0  0  0  0  0  0  0  0
   -4.2868   -1.6500    0.0000 C   0  0  0  0  0  0  0  0  0  0  0  0
   -3.5724   -1.2375    0.0000 C   0  0  0  0  0  0  0  0  0  0  0  0
   -3.5724   -0.4125    0.0000 Cl  0  0  0  0  0  0  0  0  0  0  0  0
   -2.1434   -2.8875    0.0000 Cl  0  0  0  0  0  0  0  0  0  0  0  0
    0.0000    1.6500    0.0000 Na  0  3  0  0  0  0  0  0  0  0  0  0
  1  2  2  0  0  0  0
  2  3  1  0  0  0  0
  3  4  2  0  0  0  0
  4  5  1  0  0  0  0
  5  6  2  0  0  0  0
  1  6  1  0  0  0  0
  3  7  1  0  0  0  0
  7  8  1  0  0  0  0
  8  9  2  0  0  0  0
  8 10  1  0  0  0  0
  2 11  1  0  0  0  0
 11 12  1  0  0  0  0
 12 13  2  0  0  0  0
 13 14  1  0  0  0  0
 14 15  2  0  0  0  0
 15 16  1  0  0  0  0
 16 17  2  0  0  0  0
 12 17  1  0  0  0  0
 17 18  1  0  0  0  0
 13 19  1  0  0  0  0
M  CHG  2  10  -1  20   1
M  END
>  <Name>
Diclofenac sodium

>  <CAS>
15307-79-6

>  <Formula>
C14H10Cl2NNaO2

>  <MolWt>
318.13 

>  <Bioactivity>
A non-steroidal anti-inflammatory agent (NSAID) with antipyretic and analgesic actions. It is primarily available as the sodium salt.

>  <Pathways>
Neuroscience

>  <Target>
Sodium Channel inhibitor; PLA inhibitor;COX inhibitor

>  <Receptor>
Sodium channel; PLA2;ALOX5;ASIC;COX1, COX2

>  <Reference>
1. Kirchheiner J, et al. Br J Clin Pharmacol. 2003 Jan;55(1):51-61.

$$$$
T0064
  Mrv1561503291623562D          

 10 11  0  0  0  0            999 V2000
   -0.6284   -0.6979    0.0000 C   0  0  0  0  0  0  0  0  0  0  0  0
   -0.1435   -1.3654    0.0000 N   0  0  0  0  0  0  0  0  0  0  0  0
    0.6411   -1.1104    0.0000 C   0  0  0  0  0  0  0  0  0  0  0  0
    0.6411   -0.2854    0.0000 C   0  0  0  0  0  0  0  0  0  0  0  0
   -0.1435   -0.0305    0.0000 N   0  0  0  0  0  0  0  0  0  0  0  0
    1.3556    0.1271    0.0000 C   0  0  0  0  0  0  0  0  0  0  0  0
    2.0701   -0.2854    0.0000 N   0  0  0  0  0  0  0  0  0  0  0  0
    2.0701   -1.1104    0.0000 C   0  0  0  0  0  0  0  0  0  0  0  0
    1.3556   -1.5229    0.0000 N   0  0  0  0  0  0  0  0  0  0  0  0
    1.3556    0.9521    0.0000 N   0  0  0  0  0  0  0  0  0  0  0  0
  1  2  2  0  0  0  0
  2  3  1  0  0  0  0
  3  4  2  0  0  0  0
  4  5  1  0  0  0  0
  1  5  1  0  0  0  0
  4  6  1  0  0  0  0
  6  7  2  0  0  0  0
  7  8  1  0  0  0  0
  8  9  2  0  0  0  0
  3  9  1  0  0  0  0
  6 10  1  0  0  0  0
M  END
>  <Name>
Adenine

>  <CAS>
73-24-5

>  <Formula>
C5H5N5

>  <MolWt>
135.13 

>  <Bioactivity>
Adenine is a purine derivative and a nucleobase with a variety of roles in biochemistry. Adenine is a purine derivative and a nucleobase with a variety of roles in biochemistry including cellular respiration, in the form of both the energy-rich adenosine triphosphate (ATP) and the cofactors nicotinamide adenine dinucleotide (NAD) and flavin adenine dinucleotide (FAD), and protein synthesis, as a chemical component of DNA and RNA.

>  <Pathways>
DNA Damage/DNA Repair

>  <Target>
Nucleoside Antimetabolite/Analogue

>  <Receptor>
Adenine phosphoribosyltransferase

>  <Reference>
1. Barrett C, et al. Assay Drug Dev Technol. 2006 Dec;4(6):661-9. 

$$$$
67-97-0
  Mrv1561503291623562D          

 28 30  0  0  1  0            999 V2000
    0.2943   -0.5996    0.0000 C   0  0  2  0  0  0  0  0  0  0  0  0
   -0.5127   -0.4281    0.0000 C   0  0  2  0  0  0  0  0  0  0  0  0
   -0.7676    0.3566    0.0000 C   0  0  0  0  0  0  0  0  0  0  0  0
   -0.2156    0.9697    0.0000 C   0  0  0  0  0  0  0  0  0  0  0  0
    0.5914    0.7981    0.0000 C   0  0  0  0  0  0  0  0  0  0  0  0
    0.8463    0.0135    0.0000 C   0  0  0  0  0  0  0  0  0  0  0  0
   -1.5746    0.5281    0.0000 C   0  0  0  0  0  0  0  0  0  0  0  0
   -1.8296    1.3127    0.0000 C   0  0  0  0  0  0  0  0  0  0  0  0
   -1.2775    1.9258    0.0000 C   0  0  0  0  0  0  0  0  0  0  0  0
   -1.5325    2.7104    0.0000 C   0  0  0  0  0  0  0  0  0  0  0  0
   -0.9804    3.3235    0.0000 C   0  0  0  0  0  0  0  0  0  0  0  0
   -0.1735    3.1520    0.0000 C   0  0  0  0  0  0  0  0  0  0  0  0
    0.0815    2.3674    0.0000 C   0  0  2  0  0  0  0  0  0  0  0  0
    0.8885    2.1958    0.0000 O   0  0  0  0  0  0  0  0  0  0  0  0
   -0.4705    1.7543    0.0000 C   0  0  0  0  0  0  0  0  0  0  0  0
   -2.3394    2.8820    0.0000 C   0  0  0  0  0  0  0  0  0  0  0  0
   -0.9252   -1.1425    0.0000 C   0  0  0  0  0  0  0  0  0  0  0  0
   -0.3732   -1.7556    0.0000 C   0  0  0  0  0  0  0  0  0  0  0  0
    0.3805   -1.4201    0.0000 C   0  0  2  0  0  0  0  0  0  0  0  0
    1.0950   -1.8326    0.0000 C   0  0  1  0  0  0  0  0  0  0  0  0
    1.8094   -1.4201    0.0000 C   0  0  0  0  0  0  0  0  0  0  0  0
    2.5239   -1.8326    0.0000 C   0  0  0  0  0  0  0  0  0  0  0  0
    3.2384   -1.4201    0.0000 C   0  0  0  0  0  0  0  0  0  0  0  0
    3.9529   -1.8326    0.0000 C   0  0  0  0  0  0  0  0  0  0  0  0
    4.6673   -1.4201    0.0000 C   0  0  0  0  0  0  0  0  0  0  0  0
    3.9529   -2.6576    0.0000 C   0  0  0  0  0  0  0  0  0  0  0  0
    1.0950   -2.6576    0.0000 C   0  0  0  0  0  0  0  0  0  0  0  0
    1.0789   -0.8545    0.0000 C   0  0  0  0  0  0  0  0  0  0  0  0
  1  2  1  0  0  0  0
  2  3  1  0  0  0  0
  3  4  1  0  0  0  0
  4  5  1  0  0  0  0
  5  6  1  0  0  0  0
  1  6  1  0  0  0  0
  3  7  2  0  0  0  0
  7  8  1  0  0  0  0
  8  9  2  0  0  0  0
  9 10  1  0  0  0  0
 10 11  1  0  0  0  0
 11 12  1  0  0  0  0
 12 13  1  0  0  0  0
 13 14  1  6  0  0  0
 13 15  1  0  0  0  0
  9 15  1  0  0  0  0
 10 16  2  0  0  0  0
  2 17  1  1  0  0  0
 17 18  1  0  0  0  0
 18 19  1  0  0  0  0
  1 19  1  0  0  0  0
 19 20  1  1  0  0  0
 20 21  1  0  0  0  0
 21 22  1  0  0  0  0
 22 23  1  0  0  0  0
 23 24  1  0  0  0  0
 24 25  1  0  0  0  0
 24 26  1  0  0  0  0
 20 27  1  1  0  0  0
  1 28  1  1  0  0  0
M  END
>  <Name>
Vitamin D3

>  <CAS>
67-97-0

>  <Formula>
C27H44O

>  <MolWt>
384.64 

>  <Bioactivity>
Cholecalciferol is a naturally occuring form of vitamin D. Reported that upon metabolic activation, Cholecalciferol induces cell differentiation and prevents proliferation of cancer cells.

>  <Pathways>
Vitamin

>  <Target>
VD

>  <Receptor>
vitamin D receptor

>  <Reference>
1. Ousley AM, et al. J Steroid Biochem Mol Biol, 2011, 125(3-5), 202-210.

$$$$
T0694
  Mrv1561503291623562D          

 36 40  0  0  0  0            999 V2000
   -3.5724    1.2375    0.0000 C   0  0  0  0  0  0  0  0  0  0  0  0
   -3.5724    2.0625    0.0000 C   0  0  0  0  0  0  0  0  0  0  0  0
   -2.8579    2.4750    0.0000 C   0  0  0  0  0  0  0  0  0  0  0  0
   -2.1434    2.0625    0.0000 C   0  0  0  0  0  0  0  0  0  0  0  0
   -2.1434    1.2375    0.0000 C   0  0  0  0  0  0  0  0  0  0  0  0
   -2.8579    0.8250    0.0000 C   0  0  0  0  0  0  0  0  0  0  0  0
   -1.4289    0.8250    0.0000 C   0  0  0  0  0  0  0  0  0  0  0  0
   -1.4289   -0.0000    0.0000 N   0  0  0  0  0  0  0  0  0  0  0  0
   -0.7145   -0.4125    0.0000 C   0  0  0  0  0  0  0  0  0  0  0  0
   -0.7145   -1.2375    0.0000 C   0  0  0  0  0  0  0  0  0  0  0  0
   -0.0000   -1.6500    0.0000 C   0  0  0  0  0  0  0  0  0  0  0  0
    0.7145   -1.2375    0.0000 C   0  0  0  0  0  0  0  0  0  0  0  0
    0.7145   -0.4125    0.0000 C   0  0  0  0  0  0  0  0  0  0  0  0
   -0.0000   -0.0000    0.0000 C   0  0  0  0  0  0  0  0  0  0  0  0
    1.4289    0.0000    0.0000 O   0  0  0  0  0  0  0  0  0  0  0  0
    2.1434   -0.4125    0.0000 C   0  0  0  0  0  0  0  0  0  0  0  0
    2.1434   -1.2375    0.0000 C   0  0  0  0  0  0  0  0  0  0  0  0
    1.4289   -1.6500    0.0000 C   0  0  0  0  0  0  0  0  0  0  0  0
    1.4289   -2.4750    0.0000 O   0  0  0  0  0  0  0  0  0  0  0  0
    2.8579   -0.0000    0.0000 C   0  0  0  0  0  0  0  0  0  0  0  0
    2.9441    0.8205    0.0000 N   0  0  0  0  0  0  0  0  0  0  0  0
    3.7511    0.9920    0.0000 N   0  0  0  0  0  0  0  0  0  0  0  0
    4.1636    0.2775    0.0000 N   0  0  0  0  0  0  0  0  0  0  0  0
    3.6116   -0.3356    0.0000 N   0  0  0  0  0  0  0  0  0  0  0  0
   -0.7145    1.2375    0.0000 O   0  0  0  0  0  0  0  0  0  0  0  0
   -4.2868    2.4750    0.0000 O   0  0  0  0  0  0  0  0  0  0  0  0
   -4.2868    3.3000    0.0000 C   0  0  0  0  0  0  0  0  0  0  0  0
   -5.0013    3.7125    0.0000 C   0  0  0  0  0  0  0  0  0  0  0  0
   -5.0013    4.5375    0.0000 C   0  0  0  0  0  0  0  0  0  0  0  0
   -5.7158    4.9500    0.0000 C   0  0  0  0  0  0  0  0  0  0  0  0
   -5.7158    5.7750    0.0000 C   0  0  0  0  0  0  0  0  0  0  0  0
   -6.4302    6.1875    0.0000 C   0  0  0  0  0  0  0  0  0  0  0  0
   -6.4302    7.0125    0.0000 C   0  0  0  0  0  0  0  0  0  0  0  0
   -5.7158    7.4250    0.0000 C   0  0  0  0  0  0  0  0  0  0  0  0
   -5.0013    7.0125    0.0000 C   0  0  0  0  0  0  0  0  0  0  0  0
   -5.0013    6.1875    0.0000 C   0  0  0  0  0  0  0  0  0  0  0  0
  1  2  2  0  0  0  0
  2  3  1  0  0  0  0
  3  4  2  0  0  0  0
  4  5  1  0  0  0  0
  5  6  2  0  0  0  0
  1  6  1  0  0  0  0
  5  7  1  0  0  0  0
  7  8  1  0  0  0  0
  8  9  1  0  0  0  0
  9 10  2  0  0  0  0
 10 11  1  0  0  0  0
 11 12  2  0  0  0  0
 12 13  1  0  0  0  0
 13 14  2  0  0  0  0
  9 14  1  0  0  0  0
 13 15  1  0  0  0  0
 15 16  1  0  0  0  0
 16 17  2  0  0  0  0
 17 18  1  0  0  0  0
 12 18  1  0  0  0  0
 18 19  2  0  0  0  0
 16 20  1  0  0  0  0
 20 21  2  0  0  0  0
 21 22  1  0  0  0  0
 22 23  1  0  0  0  0
 23 24  2  0  0  0  0
 20 24  1  0  0  0  0
  7 25  2  0  0  0  0
  2 26  1  0  0  0  0
 26 27  1  0  0  0  0
 27 28  1  0  0  0  0
 28 29  1  0  0  0  0
 29 30  1  0  0  0  0
 30 31  1  0  0  0  0
 31 32  2  0  0  0  0
 32 33  1  0  0  0  0
 33 34  2  0  0  0  0
 34 35  1  0  0  0  0
 35 36  2  0  0  0  0
 31 36  1  0  0  0  0
M  END
>  <Name>
Pranlukast

>  <CAS>
103177-37-3

>  <Formula>
C27H23N5O4

>  <MolWt>
481.50 

>  <Bioactivity>
Pranlukast is a cysteinyl leukotriene receptor-1 antagonist. It antagonizes or reduces bronchospasm caused, principally in asthmatics, by an allergic reaction to accidentally or inadvertently encountered allergens.  

>  <Pathways>
Immunology/Inflammation

>  <Target>
CysLTR antagonist; TNF-alpha inhibitor;IL inhibitor;NF-?B inhibitor

>  <Receptor>
CysLTR,TNF,IL-5, NF-kB, Mucin-2, Eosinophil cationic protein

>  <Reference>
1. Yoo SH, et al. Respirology. 2001 Mar;6(1):15-21. 

$$$$
125-33-7
  Mrv1561503291623562D          

 16 17  0  0  0  0            999 V2000
    2.4895   -1.2640    0.0000 C   0  0  0  0  0  0  0  0  0  0  0  0
    2.4895   -2.0890    0.0000 C   0  0  0  0  0  0  0  0  0  0  0  0
    1.7751   -2.5015    0.0000 C   0  0  0  0  0  0  0  0  0  0  0  0
    1.0606   -2.0890    0.0000 C   0  0  0  0  0  0  0  0  0  0  0  0
    1.0606   -1.2640    0.0000 C   0  0  0  0  0  0  0  0  0  0  0  0
    1.7751   -0.8515    0.0000 C   0  0  0  0  0  0  0  0  0  0  0  0
    1.7751   -0.0265    0.0000 C   0  0  0  0  0  0  0  0  0  0  0  0
    1.4929    0.7488    0.0000 C   0  0  0  0  0  0  0  0  0  0  0  0
    2.0232    1.3808    0.0000 N   0  0  0  0  0  0  0  0  0  0  0  0
    2.8357    1.2375    0.0000 C   0  0  0  0  0  0  0  0  0  0  0  0
    3.1178    0.4623    0.0000 N   0  0  0  0  0  0  0  0  0  0  0  0
    2.5875   -0.1697    0.0000 C   0  0  0  0  0  0  0  0  0  0  0  0
    2.8697   -0.9450    0.0000 O   0  0  0  0  0  0  0  0  0  0  0  0
    0.6804    0.8920    0.0000 O   0  0  0  0  0  0  0  0  0  0  0  0
    0.9626   -0.1697    0.0000 C   0  0  0  0  0  0  0  0  0  0  0  0
    0.6804   -0.9450    0.0000 C   0  0  0  0  0  0  0  0  0  0  0  0
  1  2  2  0  0  0  0
  2  3  1  0  0  0  0
  3  4  2  0  0  0  0
  4  5  1  0  0  0  0
  5  6  2  0  0  0  0
  1  6  1  0  0  0  0
  6  7  1  0  0  0  0
  7  8  1  0  0  0  0
  8  9  1  0  0  0  0
  9 10  1  0  0  0  0
 10 11  1  0  0  0  0
 11 12  1  0  0  0  0
  7 12  1  0  0  0  0
 12 13  2  0  0  0  0
  8 14  2  0  0  0  0
  7 15  1  0  0  0  0
 15 16  1  0  0  0  0
M  END
>  <Name>
Primidone

>  <CAS>
125-33-7

>  <Formula>
C12H14N2O2

>  <MolWt>
218.26 

>  <Bioactivity>
An antiepileptic agent related to the barbiturates; it is partly metabolized to PHENOBARBITAL in the body and owes some of its actions to this metabolite. Adverse effects are reported to be more frequent than with PHENOBARBITAL.

>  <Pathways>
Membrane Transporter/Ion Channel; Neuroscience

>  <Target>
AChR antagonist;GABAR;GluR antagonist;Sodium Channel inhibitor

>  <Receptor>
Neuronal AChR;GABAR;Glutamate receptor 2;Sodium channel

>  <Reference>
1. Yamakura T, et al. Annu Rev Pharmacol Toxicol. 2001;41:23-51. 

$$$$
80-13-7
  Mrv1561503291623562D          

 15 15  0  0  0  0            999 V2000
    1.4289    0.8250    0.0000 C   0  0  0  0  0  0  0  0  0  0  0  0
    1.4289    0.0000    0.0000 C   0  0  0  0  0  0  0  0  0  0  0  0
    0.7145   -0.4125    0.0000 C   0  0  0  0  0  0  0  0  0  0  0  0
   -0.0000    0.0000    0.0000 C   0  0  0  0  0  0  0  0  0  0  0  0
   -0.0000    0.8250    0.0000 C   0  0  0  0  0  0  0  0  0  0  0  0
    0.7145    1.2375    0.0000 C   0  0  0  0  0  0  0  0  0  0  0  0
    0.7145    2.0625    0.0000 S   0  0  0  0  0  0  0  0  0  0  0  0
    0.7145    2.8875    0.0000 N   0  0  0  0  0  0  0  0  0  0  0  0
    0.0000    3.3000    0.0000 Cl  0  0  0  0  0  0  0  0  0  0  0  0
    1.4289    3.3000    0.0000 Cl  0  0  0  0  0  0  0  0  0  0  0  0
   -0.1105    2.0625    0.0000 O   0  0  0  0  0  0  0  0  0  0  0  0
    1.5395    2.0625    0.0000 O   0  0  0  0  0  0  0  0  0  0  0  0
    0.7145   -1.2375    0.0000 C   0  0  0  0  0  0  0  0  0  0  0  0
    1.4289   -1.6500    0.0000 O   0  0  0  0  0  0  0  0  0  0  0  0
   -0.0000   -1.6500    0.0000 O   0  0  0  0  0  0  0  0  0  0  0  0
  1  2  2  0  0  0  0
  2  3  1  0  0  0  0
  3  4  2  0  0  0  0
  4  5  1  0  0  0  0
  5  6  2  0  0  0  0
  1  6  1  0  0  0  0
  6  7  1  0  0  0  0
  7  8  1  0  0  0  0
  8  9  1  0  0  0  0
  8 10  1  0  0  0  0
  7 11  2  0  0  0  0
  7 12  2  0  0  0  0
  3 13  1  0  0  0  0
 13 14  1  0  0  0  0
 13 15  2  0  0  0  0
M  END
>  <Name>
Halazone

>  <CAS>
80-13-7

>  <Formula>
C7H5Cl2NO4S

>  <MolWt>
270.09 

>  <Bioactivity>
Stable, but may be light sensitive. Incompatible with strong oxidizing agents

>  <Pathways>
Others

>  <Target>
Others

>  <Receptor>
Others

>  <Reference>
1. HACKENBERG HW. Z Gesamte Hyg. 1964 Apr;10:241-51.

$$$$
T0070
  Mrv1561503291623562D          

 20 21  0  0  0  0            999 V2000
   -1.7065    4.6057    0.0000 C   0  0  0  0  0  0  0  0  0  0  0  0
   -2.0420    3.8520    0.0000 N   0  0  0  0  0  0  0  0  0  0  0  0
   -1.4289    3.3000    0.0000 C   0  0  0  0  0  0  0  0  0  0  0  0
   -0.7145    3.7125    0.0000 C   0  0  0  0  0  0  0  0  0  0  0  0
    0.0000    3.3000    0.0000 C   0  0  0  0  0  0  0  0  0  0  0  0
    0.0000    2.4750    0.0000 N   0  0  0  0  0  0  0  0  0  0  0  0
    0.7145    2.0625    0.0000 C   0  0  0  0  0  0  0  0  0  0  0  0
    1.4289    2.4750    0.0000 C   0  0  0  0  0  0  0  0  0  0  0  0
    2.1434    2.0625    0.0000 C   0  0  0  0  0  0  0  0  0  0  0  0
    2.8579    2.4750    0.0000 C   0  0  0  0  0  0  0  0  0  0  0  0
    3.5724    2.0625    0.0000 C   0  0  0  0  0  0  0  0  0  0  0  0
    4.2868    2.4750    0.0000 C   0  0  0  0  0  0  0  0  0  0  0  0
    3.5724    1.2375    0.0000 O   0  0  0  0  0  0  0  0  0  0  0  0
   -0.7145    2.0625    0.0000 C   0  0  0  0  0  0  0  0  0  0  0  0
   -1.4289    2.4750    0.0000 N   0  0  0  0  0  0  0  0  0  0  0  0
   -2.1434    2.0625    0.0000 C   0  0  0  0  0  0  0  0  0  0  0  0
   -0.7145    1.2375    0.0000 O   0  0  0  0  0  0  0  0  0  0  0  0
    0.7145    3.7125    0.0000 O   0  0  0  0  0  0  0  0  0  0  0  0
   -0.8860    4.5195    0.0000 N   0  0  0  0  0  0  0  0  0  0  0  0
   -0.3340    5.1326    0.0000 C   0  0  0  0  0  0  0  0  0  0  0  0
  1  2  2  0  0  0  0
  2  3  1  0  0  0  0
  3  4  2  0  0  0  0
  4  5  1  0  0  0  0
  5  6  1  0  0  0  0
  6  7  1  0  0  0  0
  7  8  1  0  0  0  0
  8  9  1  0  0  0  0
  9 10  1  0  0  0  0
 10 11  1  0  0  0  0
 11 12  1  0  0  0  0
 11 13  2  0  0  0  0
  6 14  1  0  0  0  0
 14 15  1  0  0  0  0
  3 15  1  0  0  0  0
 15 16  1  0  0  0  0
 14 17  2  0  0  0  0
  5 18  2  0  0  0  0
  4 19  1  0  0  0  0
  1 19  1  0  0  0  0
 19 20  1  0  0  0  0
M  END
>  <Name>
Pentoxifylline

>  <CAS>
6493-05-6

>  <Formula>
C13H18N4O3

>  <MolWt>
278.31 

>  <Bioactivity>
A METHYLXANTHINE derivative that inhibits phosphodiesterase and affects blood rheology. It improves blood flow by increasing erythrocyte and leukocyte flexibility. It also inhibits platelet aggregation. Pentoxifylline modulates immunologic activity by stimulating cytokine production. 

>  <Pathways>
Metabolism; Immunology/Inflammation

>  <Target>
PDE inhibitor;ROS inhibitor

>  <Receptor>
PDE;Adenosine receptor

>  <Reference>
1. Daly JW, et al. Prog Clin Biol Res. 1987;230:41-63. 

$$$$
444-27-9
  Mrv1561503291623562D          

  8  8  0  0  0  0            999 V2000
   -0.1467    2.3518    0.0000 O   0  0  0  0  0  0  0  0  0  0  0  0
    0.5678    1.9393    0.0000 C   0  0  0  0  0  0  0  0  0  0  0  0
    0.5678    1.1143    0.0000 C   0  0  0  0  0  0  0  0  0  0  0  0
    1.2352    0.6294    0.0000 C   0  0  0  0  0  0  0  0  0  0  0  0
    0.9803   -0.1553    0.0000 S   0  0  0  0  0  0  0  0  0  0  0  0
    0.1553   -0.1553    0.0000 C   0  0  0  0  0  0  0  0  0  0  0  0
   -0.0997    0.6294    0.0000 N   0  0  0  0  0  0  0  0  0  0  0  0
    1.2822    2.3518    0.0000 O   0  0  0  0  0  0  0  0  0  0  0  0
  1  2  2  0  0  0  0
  2  3  1  0  0  0  0
  3  4  1  0  0  0  0
  4  5  1  0  0  0  0
  5  6  1  0  0  0  0
  6  7  1  0  0  0  0
  3  7  1  0  0  0  0
  2  8  1  0  0  0  0
M  END
>  <Name>
Thioproline

>  <CAS>
444-27-9

>  <Formula>
C4H7NO2S

>  <MolWt>
133.17 

>  <Bioactivity>
Thioproline, used as antioxidants.

>  <Pathways>
Membrane Transporter/Ion Channel

>  <Target>
Annexin A

>  <Receptor>
Annexin A5

>  <Reference>
1. Barba-Espin G, et al. Plant Physiol Biochem. 2012 Oct;59:30-6.

$$$$
1084-65-7
  Mrv1561503291623562D          

 17 18  0  0  0  0            999 V2000
   -0.0000    0.0000    0.0000 C   0  0  0  0  0  0  0  0  0  0  0  0
   -0.7145   -0.4125    0.0000 C   0  0  0  0  0  0  0  0  0  0  0  0
   -1.4289    0.0000    0.0000 S   0  0  0  0  0  0  0  0  0  0  0  0
   -2.1434    0.4125    0.0000 N   0  0  0  0  0  0  0  0  0  0  0  0
   -1.8414   -0.7145    0.0000 O   0  0  0  0  0  0  0  0  0  0  0  0
   -1.0164    0.7145    0.0000 O   0  0  0  0  0  0  0  0  0  0  0  0
   -0.7145   -1.2375    0.0000 C   0  0  0  0  0  0  0  0  0  0  0  0
   -0.0000   -1.6500    0.0000 C   0  0  0  0  0  0  0  0  0  0  0  0
    0.7145   -1.2375    0.0000 C   0  0  0  0  0  0  0  0  0  0  0  0
    0.7145   -0.4125    0.0000 C   0  0  0  0  0  0  0  0  0  0  0  0
    1.4289    0.0000    0.0000 S   0  0  0  0  0  0  0  0  0  0  0  0
    2.1434   -0.4125    0.0000 C   0  0  0  0  0  0  0  0  0  0  0  0
    2.1434   -1.2375    0.0000 C   0  0  0  0  0  0  0  0  0  0  0  0
    1.4289   -1.6500    0.0000 C   0  0  0  0  0  0  0  0  0  0  0  0
    1.0416    0.7284    0.0000 O   0  0  0  0  0  0  0  0  0  0  0  0
    1.8163    0.7284    0.0000 O   0  0  0  0  0  0  0  0  0  0  0  0
   -1.4289   -1.6500    0.0000 C   0  0  0  0  0  0  0  0  0  0  0  0
  1  2  2  0  0  0  0
  2  3  1  0  0  0  0
  3  4  1  0  0  0  0
  3  5  2  0  0  0  0
  3  6  2  0  0  0  0
  2  7  1  0  0  0  0
  7  8  2  0  0  0  0
  8  9  1  0  0  0  0
  9 10  2  0  0  0  0
  1 10  1  0  0  0  0
 10 11  1  0  0  0  0
 11 12  1  0  0  0  0
 12 13  1  0  0  0  0
 13 14  1  0  0  0  0
  9 14  1  0  0  0  0
 11 15  2  0  0  0  0
 11 16  2  0  0  0  0
  7 17  1  0  0  0  0
M  END
>  <Name>
Meticrane

>  <CAS>
1084-65-7

>  <Formula>
C10H13NO4S2

>  <MolWt>
275.34 

>  <Bioactivity>
Meticrane (INN) is a diuretic.

>  <Pathways>
Others

>  <Target>
Others

>  <Receptor>
Others

>  <Reference>
1. Boissier JR, et al. Ann Pharm Fr. 1970 Jul-Aug;28(7):497-509.

$$$$
25301-02-4
  Mrv1561503291623562D          

 20 19  0  0  0  0            999 V2000
    0.9526   -1.5950    0.0000 C   0  0  0  0  0  0  0  0  0  0  0  0
    0.2382   -2.0075    0.0000 C   0  0  0  0  0  0  0  0  0  0  0  0
    0.2382   -2.8325    0.0000 O   0  0  0  0  0  0  0  0  0  0  0  0
   -0.4763   -1.5950    0.0000 C   0  0  0  0  0  0  0  0  0  0  0  0
   -0.4763   -0.7700    0.0000 C   0  0  0  0  0  0  0  0  0  0  0  0
    0.2382   -0.3575    0.0000 C   0  0  0  0  0  0  0  0  0  0  0  0
    0.9526   -0.7700    0.0000 C   0  0  0  0  0  0  0  0  0  0  0  0
    0.2382    0.4675    0.0000 C   0  0  0  0  0  0  0  0  0  0  0  0
    1.0632    0.4675    0.0000 C   0  0  0  0  0  0  0  0  0  0  0  0
    0.2382    1.2925    0.0000 C   0  0  0  0  0  0  0  0  0  0  0  0
   -0.4763    1.7050    0.0000 C   0  0  0  0  0  0  0  0  0  0  0  0
   -1.1908    2.1175    0.0000 C   0  0  0  0  0  0  0  0  0  0  0  0
   -0.0638    2.4195    0.0000 C   0  0  0  0  0  0  0  0  0  0  0  0
   -0.8888    0.9905    0.0000 C   0  0  0  0  0  0  0  0  0  0  0  0
   -0.5868    0.4675    0.0000 C   0  0  0  0  0  0  0  0  0  0  0  0
    3.4203    0.4763    0.0000 C   0  0  0  0  0  0  0  0  0  0  0  0
    3.8328   -0.2382    0.0000 C   0  0  0  0  0  0  0  0  0  0  0  0
    3.0078   -0.2382    0.0000 O   0  0  0  0  0  0  0  0  0  0  0  0
    0.4125   -4.4825    0.0000 O   0  0  0  0  0  0  0  0  0  0  0  0
   -0.4125   -4.4825    0.0000 C   0  0  0  0  0  0  0  0  0  0  0  0
  1  2  2  0  0  0  0
  2  3  1  0  0  0  0
  2  4  1  0  0  0  0
  4  5  2  0  0  0  0
  5  6  1  0  0  0  0
  6  7  2  0  0  0  0
  1  7  1  0  0  0  0
  6  8  1  0  0  0  0
  8  9  1  0  0  0  0
  8 10  1  0  0  0  0
 10 11  1  0  0  0  0
 11 12  1  0  0  0  0
 11 13  1  0  0  0  0
 11 14  1  0  0  0  0
  8 15  1  0  0  0  0
 16 17  1  0  0  0  0
 17 18  1  0  0  0  0
 16 18  1  0  0  0  0
 19 20  2  0  0  0  0
M  END
>  <Name>
Tyloxapol

>  <CAS>
25301-02-4

>  <Formula>
C70H124O13

>  <MolWt>
137.18 

>  <Bioactivity>
Tyloxapol is a non-ionic detergent often used as a surfactant. 

>  <Pathways>
Enzyme

>  <Target>
LPL inhibitor

>  <Receptor>
LPL

>  <Reference>
1. Levine S, Saltzman A. J Pharmacol Toxicol Methods. 2007 Mar-Apr;55(2):224-6. 

$$$$

  Mrv1561503291623562D          

  0  0  0  0  0  0            999 V2000
M  END
>  <Name>
Benzalkonium chloride

>  <CAS>
8001-54-5

>  <Formula>
C17H30ClN

>  <MolWt>
283.88 

>  <Bioactivity>
Benzalkonium chloride is a cationic surface-acting agent belonging to the quaternary ammonium group. It has three main categories of use: as a biocide, a cationic surfactant, and phase transfer agent in the chemical industry. The chemical is a heterogeneous mixture of alkylbenzyldimethylammonium chlorides of various even-numbered alkyl chain lengths. 

>  <Pathways>
Microbiology & Virology

>  <Target>
Antibacterial

>  <Receptor>
Others

>  <Reference>
1. Baudouin C, et al. Prog Retin Eye Res. 2010 Jul;29(4):312-34.

$$$$
67-68-5
  Mrv1561503291623562D          

  4  3  0  0  0  0            999 V2000
    1.2375    0.7145    0.0000 C   0  0  0  0  0  0  0  0  0  0  0  0
    0.8250    0.0000    0.0000 S   0  0  0  0  0  0  0  0  0  0  0  0
    1.2375   -0.7145    0.0000 O   0  0  0  0  0  0  0  0  0  0  0  0
    0.0000    0.0000    0.0000 C   0  0  0  0  0  0  0  0  0  0  0  0
  1  2  1  0  0  0  0
  2  3  2  0  0  0  0
  2  4  1  0  0  0  0
M  END
>  <Name>
Dimethyl sulfoxide

>  <CAS>
67-68-5

>  <Formula>
C2H6OS

>  <MolWt>
78.13 

>  <Bioactivity>
A highly polar organic liquid, that is used widely as a chemical solvent. Because of its ability to penetrate biological membranes, it is used as a vehicle for topical application of pharmaceuticals. It is also used to protect tissue during CRYOPRESERVATION. Dimethyl sulfoxide shows a range of pharmacological activity including analgesia and anti-inflammation. 

>  <Pathways>
Others

>  <Target>
Others

>  <Receptor>
Others

>  <Reference>
1. Lehigh Shirey EA, et al. Environ Res. 2006 Oct;102(2):205-14. 

$$$$
483-63-6
  Mrv1561503291623562D          

 15 15  0  0  0  0            999 V2000
    1.4289    0.8250    0.0000 C   0  0  0  0  0  0  0  0  0  0  0  0
    1.4289    0.0000    0.0000 C   0  0  0  0  0  0  0  0  0  0  0  0
    0.7145   -0.4125    0.0000 C   0  0  0  0  0  0  0  0  0  0  0  0
   -0.0000    0.0000    0.0000 C   0  0  0  0  0  0  0  0  0  0  0  0
   -0.0000    0.8250    0.0000 C   0  0  0  0  0  0  0  0  0  0  0  0
    0.7145    1.2375    0.0000 C   0  0  0  0  0  0  0  0  0  0  0  0
    0.7145    2.0625    0.0000 N   0  0  0  0  0  0  0  0  0  0  0  0
    1.4289    2.4750    0.0000 C   0  0  0  0  0  0  0  0  0  0  0  0
    1.4289    3.3000    0.0000 C   0  0  0  0  0  0  0  0  0  0  0  0
    2.1434    3.7125    0.0000 C   0  0  0  0  0  0  0  0  0  0  0  0
    2.1434    4.5375    0.0000 C   0  0  0  0  0  0  0  0  0  0  0  0
    2.1434    2.0625    0.0000 O   0  0  0  0  0  0  0  0  0  0  0  0
    0.0000    2.4750    0.0000 C   0  0  0  0  0  0  0  0  0  0  0  0
    0.0000    3.3000    0.0000 C   0  0  0  0  0  0  0  0  0  0  0  0
   -0.7145    1.2375    0.0000 C   0  0  0  0  0  0  0  0  0  0  0  0
  1  2  2  0  0  0  0
  2  3  1  0  0  0  0
  3  4  2  0  0  0  0
  4  5  1  0  0  0  0
  5  6  2  0  0  0  0
  1  6  1  0  0  0  0
  6  7  1  0  0  0  0
  7  8  1  0  0  0  0
  8  9  1  0  0  0  0
  9 10  2  0  0  0  0
 10 11  1  0  0  0  0
  8 12  2  0  0  0  0
  7 13  1  0  0  0  0
 13 14  1  0  0  0  0
  5 15  1  0  0  0  0
M  END
>  <Name>
Crotamiton

>  <CAS>
483-63-6

>  <Formula>
C13H17NO

>  <MolWt>
203.28 

>  <Bioactivity>
Crotamiton is a scabicidal and antipruritic agent available as a cream or lotion for topical use only. It is a colorless to slightly yellowish oil, having a faint amine-like odor. It is miscible with alcohol and with methanol. 

>  <Pathways>
Others

>  <Target>
Others

>  <Receptor>
Others

>  <Reference>
1. Sekine R, et al. Exp Dermatol. 2012 Mar;21(3):201-4.

$$$$
28721-07-5
  Mrv1561503291623562D          

 19 21  0  0  0  0            999 V2000
    4.0859    1.1398    0.0000 C   0  0  0  0  0  0  0  0  0  0  0  0
    4.8742    1.3830    0.0000 C   0  0  0  0  0  0  0  0  0  0  0  0
    5.0578    2.1873    0.0000 C   0  0  0  0  0  0  0  0  0  0  0  0
    4.4530    2.7485    0.0000 C   0  0  0  0  0  0  0  0  0  0  0  0
    3.6647    2.5053    0.0000 C   0  0  0  0  0  0  0  0  0  0  0  0
    3.4811    1.7010    0.0000 C   0  0  0  0  0  0  0  0  0  0  0  0
    2.7378    1.3430    0.0000 N   0  0  0  0  0  0  0  0  0  0  0  0
    1.9945    1.7010    0.0000 C   0  0  0  0  0  0  0  0  0  0  0  0
    1.8109    2.5053    0.0000 C   0  0  0  0  0  0  0  0  0  0  0  0
    1.0226    2.7485    0.0000 C   0  0  0  0  0  0  0  0  0  0  0  0
    0.4178    2.1873    0.0000 C   0  0  0  0  0  0  0  0  0  0  0  0
    0.6014    1.3830    0.0000 C   0  0  0  0  0  0  0  0  0  0  0  0
    1.3897    1.1398    0.0000 C   0  0  0  0  0  0  0  0  0  0  0  0
    2.3253    3.1503    0.0000 C   0  0  0  0  0  0  0  0  0  0  0  0
    3.1503    3.1503    0.0000 C   0  0  0  0  0  0  0  0  0  0  0  0
    3.5083    3.8936    0.0000 O   0  0  0  0  0  0  0  0  0  0  0  0
    2.7378    0.5180    0.0000 C   0  0  0  0  0  0  0  0  0  0  0  0
    2.0233    0.1055    0.0000 N   0  0  0  0  0  0  0  0  0  0  0  0
    3.4523    0.1055    0.0000 O   0  0  0  0  0  0  0  0  0  0  0  0
  1  2  2  0  0  0  0
  2  3  1  0  0  0  0
  3  4  2  0  0  0  0
  4  5  1  0  0  0  0
  5  6  2  0  0  0  0
  1  6  1  0  0  0  0
  6  7  1  0  0  0  0
  7  8  1  0  0  0  0
  8  9  2  0  0  0  0
  9 10  1  0  0  0  0
 10 11  2  0  0  0  0
 11 12  1  0  0  0  0
 12 13  2  0  0  0  0
  8 13  1  0  0  0  0
  9 14  1  0  0  0  0
 14 15  1  0  0  0  0
  5 15  1  0  0  0  0
 15 16  2  0  0  0  0
  7 17  1  0  0  0  0
 17 18  1  0  0  0  0
 17 19  2  0  0  0  0
M  END
>  <Name>
Oxcarbazepine

>  <CAS>
28721-07-5

>  <Formula>
C15H12N2O2

>  <MolWt>
252.27 

>  <Bioactivity>
Oxcarbazepine is structurally a derivative of carbamazepine, adding an extra oxygen atom to the benzylcarboxamide group. This difference helps reduce the impact on the liver of metabolizing the drug, and also prevents the serious forms of anemia occasionally associated with carbamazepine. Aside from this reduction in side effects, it is thought to have the same mechanism as carbamazepine - sodium channel inhibition - and is generally used to treat partial seizures in epileptic children and adults. 


>  <Pathways>
Membrane Transporter/Ion Channel

>  <Target>
Sodium Channel inhibitor

>  <Receptor>
Sodium Channel

>  <Reference>
1. Vohora D, et al. Drugs Today (Barc). 2010 Apr; 46(4):265-77.

$$$$
550-99-2
  Mrv1561503291623562D          

 18 18  0  0  0  0            999 V2000
    0.4125    0.0000    0.0000 H   0  3  0  0  0  0  0  0  0  0  0  0
    4.7898   -1.6823    0.0000 C   0  0  0  0  0  0  0  0  0  0  0  0
    5.5043   -1.2698    0.0000 C   0  0  0  0  0  0  0  0  0  0  0  0
    5.5043   -0.4448    0.0000 C   0  0  0  0  0  0  0  0  0  0  0  0
    4.7898   -0.0323    0.0000 C   0  0  0  0  0  0  0  0  0  0  0  0
    4.7898    0.7927    0.0000 C   0  0  0  0  0  0  0  0  0  0  0  0
    4.0754    1.2052    0.0000 C   0  0  0  0  0  0  0  0  0  0  0  0
    3.3217    0.8696    0.0000 N   0  0  0  0  0  0  0  0  0  0  0  0
    2.7696    1.4827    0.0000 C   0  0  0  0  0  0  0  0  0  0  0  0
    3.1821    2.1972    0.0000 C   0  0  0  0  0  0  0  0  0  0  0  0
    3.9891    2.0257    0.0000 N   0  0  0  0  0  0  0  0  0  0  0  0
    4.0754   -0.4448    0.0000 C   0  0  0  0  0  0  0  0  0  0  0  0
    4.0754   -1.2698    0.0000 C   0  0  0  0  0  0  0  0  0  0  0  0
    6.2188   -0.0323    0.0000 C   0  0  0  0  0  0  0  0  0  0  0  0
    6.9332   -0.4448    0.0000 C   0  0  0  0  0  0  0  0  0  0  0  0
    6.9332   -1.2698    0.0000 C   0  0  0  0  0  0  0  0  0  0  0  0
    6.2188   -1.6823    0.0000 C   0  0  0  0  0  0  0  0  0  0  0  0
   -0.4125    0.0000    0.0000 Cl  0  5  0  0  0  0  0  0  0  0  0  0
  2  3  2  0  0  0  0
  3  4  1  0  0  0  0
  4  5  2  0  0  0  0
  5  6  1  0  0  0  0
  6  7  1  0  0  0  0
  7  8  2  0  0  0  0
  8  9  1  0  0  0  0
  9 10  1  0  0  0  0
 10 11  1  0  0  0  0
  7 11  1  0  0  0  0
  5 12  1  0  0  0  0
 12 13  2  0  0  0  0
  2 13  1  0  0  0  0
  4 14  1  0  0  0  0
 14 15  2  0  0  0  0
 15 16  1  0  0  0  0
 16 17  2  0  0  0  0
  3 17  1  0  0  0  0
M  CHG  2   1   1  18  -1
M  END
>  <Name>
Naphazoline HCl

>  <CAS>
550-99-2

>  <Formula>
C14H15ClN2

>  <MolWt>
246.74 

>  <Bioactivity>
Naphazoline HCl is an ocular vasoconstrictor and imidazoline derivative sympathomimetic amine.

>  <Pathways>
GPCR/G Protein

>  <Target>
Adrenergic Receptor agonist

>  <Receptor>
Adrenergic Receptor

>  <Reference>
1. Piletz JE, et al. J Pharmacol Exp Ther. 1996 Nov; 279(2):694-702. 

$$$$
T0448
  Mrv1561503291623562D          

 15 15  0  0  1  0            999 V2000
    0.7145    2.0625    0.0000 C   0  0  1  0  0  0  0  0  0  0  0  0
    0.7145    1.2375    0.0000 C   0  0  0  0  0  0  0  0  0  0  0  0
    1.4289    0.8250    0.0000 C   0  0  0  0  0  0  0  0  0  0  0  0
    1.4289    0.0000    0.0000 C   0  0  0  0  0  0  0  0  0  0  0  0
    0.7145   -0.4125    0.0000 C   0  0  0  0  0  0  0  0  0  0  0  0
    0.7145   -1.2375    0.0000 C   0  0  0  0  0  0  0  0  0  0  0  0
   -0.0000   -1.6500    0.0000 C   0  0  0  0  0  0  0  0  0  0  0  0
   -0.0000   -2.4750    0.0000 C   0  0  0  0  0  0  0  0  0  0  0  0
   -0.7145   -1.2375    0.0000 C   0  0  0  0  0  0  0  0  0  0  0  0
    0.0000   -0.0000    0.0000 C   0  0  0  0  0  0  0  0  0  0  0  0
    0.0000    0.8250    0.0000 C   0  0  0  0  0  0  0  0  0  0  0  0
    1.4289    2.4750    0.0000 C   0  0  0  0  0  0  0  0  0  0  0  0
    1.4289    3.3000    0.0000 O   0  0  0  0  0  0  0  0  0  0  0  0
    2.1434    2.0625    0.0000 O   0  0  0  0  0  0  0  0  0  0  0  0
   -0.0000    2.4750    0.0000 C   0  0  0  0  0  0  0  0  0  0  0  0
  1  2  1  0  0  0  0
  2  3  2  0  0  0  0
  3  4  1  0  0  0  0
  4  5  2  0  0  0  0
  5  6  1  0  0  0  0
  6  7  1  0  0  0  0
  7  8  1  0  0  0  0
  7  9  1  0  0  0  0
  5 10  1  0  0  0  0
 10 11  2  0  0  0  0
  2 11  1  0  0  0  0
  1 12  1  0  0  0  0
 12 13  1  0  0  0  0
 12 14  2  0  0  0  0
  1 15  1  6  0  0  0
M  END
>  <Name>
Dexibuprofen

>  <CAS>
51146-56-6

>  <Formula>
C13H18O2

>  <MolWt>
206.28 

>  <Bioactivity>
S(+)-Ibuprofen is capable of inhibiting cyclooxygenase (COX) at clinically relevant concentrations, R(-)-ibuprofen is not a COX inhibitor.

>  <Pathways>
Neuroscience;Angiogensis;Apoptosis

>  <Target>
Plasminogen inhibitor;PPAR activator;COX inhibitor; Bcl-2 inhibitor;thrombomodulin

>  <Receptor>
plasminogen;PPAR?; Prostaglandin G/H synthase ;Bcl-2,  FABP;thrombomodulin;Cystic fibrosis transmembrane conductance regulator

>  <Reference>
1. Sanchez-Fidalgo S, et al. Eur J Pharmacol. 2004 Nov 28; 505(1-3):187-94. 

$$$$
17692-31-8
  Mrv1561503291623562D          

 17 18  0  0  0  0            999 V2000
    0.0000   -1.6500    0.0000 C   0  0  0  0  0  0  0  0  0  0  0  0
    0.7145   -1.2375    0.0000 C   0  0  0  0  0  0  0  0  0  0  0  0
    0.7145   -0.4125    0.0000 N   0  0  0  0  0  0  0  0  0  0  0  0
    0.0000    0.0000    0.0000 C   0  0  0  0  0  0  0  0  0  0  0  0
    0.0000    0.8250    0.0000 C   0  0  0  0  0  0  0  0  0  0  0  0
    0.7145    1.2375    0.0000 N   0  0  0  0  0  0  0  0  0  0  0  0
    0.7145    2.0625    0.0000 C   0  0  0  0  0  0  0  0  0  0  0  0
    1.4289    2.4750    0.0000 C   0  0  0  0  0  0  0  0  0  0  0  0
    1.4289    3.3000    0.0000 C   0  0  0  0  0  0  0  0  0  0  0  0
    2.1434    3.7125    0.0000 O   0  0  0  0  0  0  0  0  0  0  0  0
    2.1434    2.0625    0.0000 O   0  0  0  0  0  0  0  0  0  0  0  0
    1.4289    0.8250    0.0000 C   0  0  0  0  0  0  0  0  0  0  0  0
    1.4289   -0.0000    0.0000 C   0  0  0  0  0  0  0  0  0  0  0  0
    1.4289   -1.6500    0.0000 C   0  0  0  0  0  0  0  0  0  0  0  0
    1.4289   -2.4750    0.0000 C   0  0  0  0  0  0  0  0  0  0  0  0
    0.7145   -2.8875    0.0000 C   0  0  0  0  0  0  0  0  0  0  0  0
   -0.0000   -2.4750    0.0000 C   0  0  0  0  0  0  0  0  0  0  0  0
  1  2  2  0  0  0  0
  2  3  1  0  0  0  0
  3  4  1  0  0  0  0
  4  5  1  0  0  0  0
  5  6  1  0  0  0  0
  6  7  1  0  0  0  0
  7  8  1  0  0  0  0
  8  9  1  0  0  0  0
  9 10  1  0  0  0  0
  8 11  1  0  0  0  0
  6 12  1  0  0  0  0
 12 13  1  0  0  0  0
  3 13  1  0  0  0  0
  2 14  1  0  0  0  0
 14 15  2  0  0  0  0
 15 16  1  0  0  0  0
 16 17  2  0  0  0  0
  1 17  1  0  0  0  0
M  END
>  <Name>
Dropropizine

>  <CAS>
17692-31-8

>  <Formula>
C13H20N2O2

>  <MolWt>
236.31 

>  <Bioactivity>
Dropropizine is a racemic non-opiate antitussive agent, it is used as a cough suppressant.

>  <Pathways>
Others

>  <Target>
Others

>  <Receptor>
Others

>  <Reference>
1. Slamenova D, et al. Mutat Res, 1986 Mar, 169(3), 171-177.

$$$$
61-76-7
  Mrv1561503291623562D          

 14 12  0  0  0  0            999 V2000
    0.4125    0.0000    0.0000 H   0  3  0  0  0  0  0  0  0  0  0  0
    3.7272    0.6187    0.0000 C   0  0  0  0  0  0  0  0  0  0  0  0
    3.7272   -0.2062    0.0000 C   0  0  0  0  0  0  0  0  0  0  0  0
    4.4416   -0.6187    0.0000 C   0  0  0  0  0  0  0  0  0  0  0  0
    4.4416   -1.4438    0.0000 O   0  0  0  0  0  0  0  0  0  0  0  0
    5.1561   -0.2062    0.0000 C   0  0  0  0  0  0  0  0  0  0  0  0
    5.8706   -0.6187    0.0000 N   0  0  0  0  0  0  0  0  0  0  0  0
    6.5850   -0.2062    0.0000 C   0  0  0  0  0  0  0  0  0  0  0  0
    3.0127   -0.6188    0.0000 C   0  0  0  0  0  0  0  0  0  0  0  0
    2.2982   -0.2062    0.0000 C   0  0  0  0  0  0  0  0  0  0  0  0
    2.2982    0.6188    0.0000 C   0  0  0  0  0  0  0  0  0  0  0  0
    3.0127    1.0312    0.0000 C   0  0  0  0  0  0  0  0  0  0  0  0
    3.0127    1.8562    0.0000 O   0  0  0  0  0  0  0  0  0  0  0  0
   -0.4125    0.0000    0.0000 Cl  0  5  0  0  0  0  0  0  0  0  0  0
  2  3  2  0  0  0  0
  3  4  1  0  0  0  0
  4  5  1  0  0  0  0
  4  6  1  0  0  0  0
  6  7  1  0  0  0  0
  7  8  1  0  0  0  0
  3  9  1  0  0  0  0
  9 10  2  0  0  0  0
 10 11  1  0  0  0  0
 11 12  2  0  0  0  0
  2 12  1  0  0  0  0
 12 13  1  0  0  0  0
M  CHG  2   1   1  14  -1
M  END
>  <Name>
Phenylephrine HCl

>  <CAS>
61-76-7

>  <Formula>
C9H14ClNO2

>  <MolWt>
203.67 

>  <Bioactivity>
Phenylephrine HCl is a selective ?1-adrenergic receptor agonist.

>  <Pathways>
GPCR/G Protein

>  <Target>
Adrenergic Receptor

>  <Receptor>
?-adrenergic receptor

>  <Reference>
1. Tomiyama Y, et al. Eur J Pharmacol. 2007 Nov 14; 573(1-3):201-5.

$$$$
132-60-5
  Mrv1561503291623562D          

 19 21  0  0  0  0            999 V2000
    1.4289   -1.6500    0.0000 C   0  0  0  0  0  0  0  0  0  0  0  0
    0.7145   -1.2375    0.0000 C   0  0  0  0  0  0  0  0  0  0  0  0
    0.7145   -0.4125    0.0000 C   0  0  0  0  0  0  0  0  0  0  0  0
    1.4289   -0.0000    0.0000 C   0  0  0  0  0  0  0  0  0  0  0  0
    2.1434   -0.4125    0.0000 C   0  0  0  0  0  0  0  0  0  0  0  0
    2.8579   -0.0000    0.0000 N   0  0  0  0  0  0  0  0  0  0  0  0
    3.5724   -0.4125    0.0000 C   0  0  0  0  0  0  0  0  0  0  0  0
    3.5724   -1.2375    0.0000 C   0  0  0  0  0  0  0  0  0  0  0  0
    2.8579   -1.6500    0.0000 C   0  0  0  0  0  0  0  0  0  0  0  0
    2.1434   -1.2375    0.0000 C   0  0  0  0  0  0  0  0  0  0  0  0
    2.8579   -2.4750    0.0000 C   0  0  0  0  0  0  0  0  0  0  0  0
    2.1434   -2.8875    0.0000 O   0  0  0  0  0  0  0  0  0  0  0  0
    3.5724   -2.8875    0.0000 O   0  0  0  0  0  0  0  0  0  0  0  0
    4.2868    0.0000    0.0000 C   0  0  0  0  0  0  0  0  0  0  0  0
    4.2868    0.8250    0.0000 C   0  0  0  0  0  0  0  0  0  0  0  0
    5.0013    1.2375    0.0000 C   0  0  0  0  0  0  0  0  0  0  0  0
    5.7158    0.8250    0.0000 C   0  0  0  0  0  0  0  0  0  0  0  0
    5.7158   -0.0000    0.0000 C   0  0  0  0  0  0  0  0  0  0  0  0
    5.0013   -0.4125    0.0000 C   0  0  0  0  0  0  0  0  0  0  0  0
  1  2  2  0  0  0  0
  2  3  1  0  0  0  0
  3  4  2  0  0  0  0
  4  5  1  0  0  0  0
  5  6  2  0  0  0  0
  6  7  1  0  0  0  0
  7  8  2  0  0  0  0
  8  9  1  0  0  0  0
  9 10  2  0  0  0  0
  1 10  1  0  0  0  0
  5 10  1  0  0  0  0
  9 11  1  0  0  0  0
 11 12  1  0  0  0  0
 11 13  2  0  0  0  0
  7 14  1  0  0  0  0
 14 15  2  0  0  0  0
 15 16  1  0  0  0  0
 16 17  2  0  0  0  0
 17 18  1  0  0  0  0
 18 19  2  0  0  0  0
 14 19  1  0  0  0  0
M  END
>  <Name>
Cinchophen

>  <CAS>
132-60-5

>  <Formula>
C16H11NO2

>  <MolWt>
249.26 

>  <Bioactivity>
Cinchophen is an analgesic drug that is frequently used to treat gout.

>  <Pathways>
Neuroscience

>  <Target>
COX inhibitor

>  <Receptor>
Prostaglandin G/H synthase

>  <Reference>
1. Cutrín Prieto C, et al. Med Clin (Barc). 1991 Jun 15; 97(3):104-6.

$$$$
57-66-9
  Mrv1561503291623562D          

 19 19  0  0  0  0            999 V2000
    0.7145   -0.4125    0.0000 C   0  0  0  0  0  0  0  0  0  0  0  0
   -0.0000   -0.0000    0.0000 C   0  0  0  0  0  0  0  0  0  0  0  0
   -0.0000    0.8250    0.0000 C   0  0  0  0  0  0  0  0  0  0  0  0
    0.7145    1.2375    0.0000 C   0  0  0  0  0  0  0  0  0  0  0  0
    1.4289    0.8250    0.0000 C   0  0  0  0  0  0  0  0  0  0  0  0
    1.4289   -0.0000    0.0000 C   0  0  0  0  0  0  0  0  0  0  0  0
    2.1434   -0.4125    0.0000 S   0  0  0  0  0  0  0  0  0  0  0  0
    2.8579   -0.8250    0.0000 N   0  0  0  0  0  0  0  0  0  0  0  0
    3.5724   -0.4125    0.0000 C   0  0  0  0  0  0  0  0  0  0  0  0
    4.2868   -0.8250    0.0000 C   0  0  0  0  0  0  0  0  0  0  0  0
    5.0013   -0.4125    0.0000 C   0  0  0  0  0  0  0  0  0  0  0  0
    2.8579   -1.6500    0.0000 C   0  0  0  0  0  0  0  0  0  0  0  0
    3.5724   -2.0625    0.0000 C   0  0  0  0  0  0  0  0  0  0  0  0
    3.5724   -2.8875    0.0000 C   0  0  0  0  0  0  0  0  0  0  0  0
    2.5559    0.3020    0.0000 O   0  0  0  0  0  0  0  0  0  0  0  0
    1.7309   -1.1270    0.0000 O   0  0  0  0  0  0  0  0  0  0  0  0
   -0.7145    1.2375    0.0000 C   0  0  0  0  0  0  0  0  0  0  0  0
   -1.4289    0.8250    0.0000 O   0  0  0  0  0  0  0  0  0  0  0  0
   -0.7145    2.0625    0.0000 O   0  0  0  0  0  0  0  0  0  0  0  0
  1  2  2  0  0  0  0
  2  3  1  0  0  0  0
  3  4  2  0  0  0  0
  4  5  1  0  0  0  0
  5  6  2  0  0  0  0
  1  6  1  0  0  0  0
  6  7  1  0  0  0  0
  7  8  1  0  0  0  0
  8  9  1  0  0  0  0
  9 10  1  0  0  0  0
 10 11  1  0  0  0  0
  8 12  1  0  0  0  0
 12 13  1  0  0  0  0
 13 14  1  0  0  0  0
  7 15  2  0  0  0  0
  7 16  2  0  0  0  0
  3 17  1  0  0  0  0
 17 18  1  0  0  0  0
 17 19  2  0  0  0  0
M  END
>  <Name>
Probenecid

>  <CAS>
57-66-9

>  <Formula>
C13H19NO4S

>  <MolWt>
285.36 

>  <Bioactivity>
The prototypical uricosuric agent. It inhibits the renal excretion of organic anions and reduces tubular reabsorption of urate. Probenecid has also been used to treat patients with renal impairment, and, because it reduces the renal tubular excretion of other drugs, has been used as an adjunct to antibacterial therapy. 

>  <Pathways>
Membrane Transporter/Ion Channel; Ubquitination

>  <Target>
Pannexin inhibitor;TRPV inhibitor

>  <Receptor>
Pannexin-1;TRPV

>  <Reference>
1. McDonough PM, et al. Cell Calcium, 1989, 10(3), 171-180. 

$$$$
68767-14-6
  Mrv1561503291623562D          

 18 19  0  0  0  0            999 V2000
    0.7145   -0.4125    0.0000 C   0  0  0  0  0  0  0  0  0  0  0  0
    0.0000    0.0000    0.0000 C   0  0  0  0  0  0  0  0  0  0  0  0
   -0.7145   -0.4125    0.0000 C   0  0  0  0  0  0  0  0  0  0  0  0
   -0.7145   -1.2375    0.0000 C   0  0  0  0  0  0  0  0  0  0  0  0
   -0.0470   -1.7224    0.0000 C   0  0  0  0  0  0  0  0  0  0  0  0
   -0.3020   -2.5070    0.0000 C   0  0  0  0  0  0  0  0  0  0  0  0
   -1.1270   -2.5070    0.0000 C   0  0  0  0  0  0  0  0  0  0  0  0
   -1.3819   -1.7224    0.0000 C   0  0  0  0  0  0  0  0  0  0  0  0
    0.7376   -1.4675    0.0000 O   0  0  0  0  0  0  0  0  0  0  0  0
    0.0000    0.8250    0.0000 C   0  0  0  0  0  0  0  0  0  0  0  0
    0.7145    1.2375    0.0000 C   0  0  0  0  0  0  0  0  0  0  0  0
    1.4289    0.8250    0.0000 C   0  0  0  0  0  0  0  0  0  0  0  0
    1.4289   -0.0000    0.0000 C   0  0  0  0  0  0  0  0  0  0  0  0
    2.1434    1.2375    0.0000 C   0  0  0  0  0  0  0  0  0  0  0  0
    2.8579    0.8250    0.0000 C   0  0  0  0  0  0  0  0  0  0  0  0
    3.5724    1.2375    0.0000 O   0  0  0  0  0  0  0  0  0  0  0  0
    2.8579   -0.0000    0.0000 O   0  0  0  0  0  0  0  0  0  0  0  0
    2.1434    2.0625    0.0000 C   0  0  0  0  0  0  0  0  0  0  0  0
  1  2  2  0  0  0  0
  2  3  1  0  0  0  0
  3  4  1  0  0  0  0
  4  5  1  0  0  0  0
  5  6  1  0  0  0  0
  6  7  1  0  0  0  0
  7  8  1  0  0  0  0
  4  8  1  0  0  0  0
  5  9  2  0  0  0  0
  2 10  1  0  0  0  0
 10 11  2  0  0  0  0
 11 12  1  0  0  0  0
 12 13  2  0  0  0  0
  1 13  1  0  0  0  0
 12 14  1  0  0  0  0
 14 15  1  0  0  0  0
 15 16  1  0  0  0  0
 15 17  2  0  0  0  0
 14 18  1  0  0  0  0
M  END
>  <Name>
Loxoprofen

>  <CAS>
68767-14-6

>  <Formula>
C15H18O3

>  <MolWt>
246.30 

>  <Bioactivity>
Loxoprofen is a non-steroidal anti-inflammatory drug.

>  <Pathways>
Neuroscience

>  <Target>
COX inhibitor

>  <Receptor>
Prostaglandin G/H synthase

>  <Reference>
1. Fukiya Y, et al. Biomed Res. 2014; 35(1):17-23. 

$$$$
T0681
  Mrv1561503291623562D          

 59 63  0  0  0  0            999 V2000
   11.5635    1.2258    0.0000 C   0  0  0  0  0  0  0  0  0  0  0  0
   10.7086    1.5113    0.0000 C   0  0  0  0  0  0  0  0  0  0  0  0
   10.1992    0.8576    0.0000 C   0  0  0  0  0  0  0  0  0  0  0  0
    9.5393    0.3579    0.0000 C   0  0  0  0  0  0  0  0  0  0  0  0
    8.7728    0.0449    0.0000 C   0  0  0  0  0  0  0  0  0  0  0  0
    7.9515   -0.0686    0.0000 C   0  0  0  0  0  0  0  0  0  0  0  0
    7.1237    0.0193    0.0000 C   0  0  0  0  0  0  0  0  0  0  0  0
    6.6782   -0.7364    0.0000 O   0  0  0  0  0  0  0  0  0  0  0  0
    6.3244    0.2723    0.0000 N   0  0  0  0  0  0  0  0  0  0  0  0
    5.7499    0.8989    0.0000 C   0  0  0  0  0  0  0  0  0  0  0  0
    4.9939    1.2726    0.0000 C   0  0  0  0  0  0  0  0  0  0  0  0
    4.9174    2.1164    0.0000 C   0  0  0  0  0  0  0  0  0  0  0  0
    4.1777    2.5117    0.0000 C   0  0  0  0  0  0  0  0  0  0  0  0
    4.1409    3.3414    0.0000 C   0  0  0  0  0  0  0  0  0  0  0  0
    4.8355    3.8261    0.0000 C   0  0  0  0  0  0  0  0  0  0  0  0
    5.5705    3.4454    0.0000 C   0  0  0  0  0  0  0  0  0  0  0  0
    5.6097    2.5924    0.0000 C   0  0  0  0  0  0  0  0  0  0  0  0
    6.3510    2.2200    0.0000 C   0  0  0  0  0  0  0  0  0  0  0  0
    6.7345    2.9512    0.0000 O   0  0  0  0  0  0  0  0  0  0  0  0
    6.4203    1.4011    0.0000 C   0  0  0  0  0  0  0  0  0  0  0  0
    7.2645    1.4531    0.0000 C   0  0  0  0  0  0  0  0  0  0  0  0
    8.0393    1.8144    0.0000 N   0  0  0  0  0  0  0  0  0  0  0  0
    8.5946    1.2087    0.0000 N   0  0  0  0  0  0  0  0  0  0  0  0
    9.2634    1.6917    0.0000 C   0  0  0  0  0  0  0  0  0  0  0  0
   10.0161    1.3540    0.0000 C   0  0  0  0  0  0  0  0  0  0  0  0
   10.1000    0.5333    0.0000 N   0  0  0  0  0  0  0  0  0  0  0  0
    9.4312    0.0502    0.0000 C   0  0  0  0  0  0  0  0  0  0  0  0
    8.6785    0.3879    0.0000 C   0  0  0  0  0  0  0  0  0  0  0  0
   10.8163   -0.0519    0.0000 C   0  0  0  0  0  0  0  0  0  0  0  0
    6.1752    4.0464    0.0000 C   0  0  0  0  0  0  0  0  0  0  0  0
    6.9794    4.3451    0.0000 O   0  0  0  0  0  0  0  0  0  0  0  0
    5.8288    4.8180    0.0000 C   0  0  0  0  0  0  0  0  0  0  0  0
    4.9893    4.6676    0.0000 O   0  0  0  0  0  0  0  0  0  0  0  0
    6.3789    5.4912    0.0000 O   0  0  0  0  0  0  0  0  0  0  0  0
    7.0628    6.0191    0.0000 C   0  0  0  0  0  0  0  0  0  0  0  0
    7.8827    6.2316    0.0000 C   0  0  0  0  0  0  0  0  0  0  0  0
    8.7231    6.1727    0.0000 C   0  0  0  0  0  0  0  0  0  0  0  0
    9.5151    5.8821    0.0000 C   0  0  0  0  0  0  0  0  0  0  0  0
   10.2157    5.3645    0.0000 C   0  0  0  0  0  0  0  0  0  0  0  0
   10.7317    4.6931    0.0000 C   0  0  0  0  0  0  0  0  0  0  0  0
   11.0450    3.9221    0.0000 C   0  0  0  0  0  0  0  0  0  0  0  0
   11.1473    3.0972    0.0000 C   0  0  0  0  0  0  0  0  0  0  0  0
   11.0322    2.2752    0.0000 C   0  0  0  0  0  0  0  0  0  0  0  0
   11.8833    2.0723    0.0000 O   0  0  0  0  0  0  0  0  0  0  0  0
   12.0121    3.0499    0.0000 C   0  0  0  0  0  0  0  0  0  0  0  0
   11.9011    4.0412    0.0000 O   0  0  0  0  0  0  0  0  0  0  0  0
   11.5366    4.9903    0.0000 C   0  0  0  0  0  0  0  0  0  0  0  0
   10.8302    5.9998    0.0000 O   0  0  0  0  0  0  0  0  0  0  0  0
   10.7521    6.8631    0.0000 C   0  0  0  0  0  0  0  0  0  0  0  0
    9.8502    7.2251    0.0000 O   0  0  0  0  0  0  0  0  0  0  0  0
   11.4811    7.3644    0.0000 C   0  0  0  0  0  0  0  0  0  0  0  0
   10.0365    6.5655    0.0000 C   0  0  0  0  0  0  0  0  0  0  0  0
    8.8437    7.1139    0.0000 O   0  0  0  0  0  0  0  0  0  0  0  0
    8.2225    7.7762    0.0000 C   0  0  0  0  0  0  0  0  0  0  0  0
    5.3044    5.5245    0.0000 C   0  0  0  0  0  0  0  0  0  0  0  0
    3.3826    3.7397    0.0000 C   0  0  0  0  0  0  0  0  0  0  0  0
    3.3940    2.1668    0.0000 O   0  0  0  0  0  0  0  0  0  0  0  0
    4.3455    0.7151    0.0000 O   0  0  0  0  0  0  0  0  0  0  0  0
    7.7006   -0.9372    0.0000 C   0  0  0  0  0  0  0  0  0  0  0  0
  1  2  1  0  0  0  0
  3  2  1  4  0  0  0
  3  4  2  0  0  0  0
  5  4  1  4  0  0  0
  5  6  2  0  0  0  0
  6  7  1  0  0  0  0
  7  8  2  0  0  0  0
  7  9  1  0  0  0  0
  9 10  1  0  0  0  0
 10 11  2  0  0  0  0
 11 12  1  0  0  0  0
 12 13  2  0  0  0  0
 13 14  1  0  0  0  0
 14 15  2  0  0  0  0
 15 16  1  0  0  0  0
 16 17  2  0  0  0  0
 12 17  1  0  0  0  0
 17 18  1  0  0  0  0
 18 19  2  0  0  0  0
 18 20  1  0  0  0  0
 10 20  1  0  0  0  0
 20 21  2  0  0  0  0
 21 22  1  4  0  0  0
 22 23  1  0  0  0  0
 23 24  1  0  0  0  0
 24 25  1  0  0  0  0
 25 26  1  0  0  0  0
 26 27  1  0  0  0  0
 27 28  1  0  0  0  0
 23 28  1  0  0  0  0
 26 29  1  0  0  0  0
 16 30  1  0  0  0  0
 30 31  2  0  0  0  0
 30 32  1  0  0  0  0
 32 33  1  0  0  0  0
 15 33  1  0  0  0  0
 32 34  1  0  0  0  0
 35 34  1  4  0  0  0
 35 36  2  0  0  0  0
 36 37  1  0  0  0  0
 37 38  1  0  0  0  0
 38 39  1  0  0  0  0
 39 40  1  0  0  0  0
 40 41  1  0  0  0  0
 41 42  1  0  0  0  0
 42 43  1  0  0  0  0
  2 43  1  0  0  0  0
 43 44  1  0  0  0  0
 42 45  1  0  0  0  0
 41 46  1  0  0  0  0
 40 47  1  0  0  0  0
 39 48  1  0  0  0  0
 48 49  1  0  0  0  0
 49 50  2  0  0  0  0
 49 51  1  0  0  0  0
 38 52  1  0  0  0  0
 37 53  1  0  0  0  0
 53 54  1  0  0  0  0
 32 55  1  0  0  0  0
 14 56  1  0  0  0  0
 13 57  1  0  0  0  0
 11 58  1  0  0  0  0
  6 59  1  0  0  0  0
M  END
>  <Name>
Rifampicin

>  <CAS>
13292-46-1

>  <Formula>
C43H58N4O12

>  <MolWt>
822.94 

>  <Bioactivity>
A semisynthetic antibiotic produced from Streptomyces mediterranei. It has a broad antibacterial spectrum, including activity against several forms of Mycobacterium. In susceptible organisms it inhibits DNA-dependent RNA polymerase activity by forming a stable complex with the enzyme. It thus suppresses the initiation of RNA synthesis. Rifampin is bactericidal, and acts on both intracellular and extracellular organisms. (From Gilman et al., Goodman and Gilman's The Pharmacological Basis of Therapeutics, 9th ed, p1160) 

>  <Pathways>
DNA Damage/DNA Repair;Microbiology & Virology

>  <Target>
Antibiotic;DNA/RNA Synthesis inhibitor

>  <Receptor>
DNA/RNA Synthesis inhibitor, 14-? demethylase

>  <Reference>
1. Villain-Guillot P, et al. Drug Discov Today. 2007 Mar;12(5-6):200-8. 

$$$$
77-67-8
  Mrv1561503291623562D          

 10 10  0  0  0  0            999 V2000
    0.0157    1.7274    0.0000 C   0  0  0  0  0  0  0  0  0  0  0  0
    0.5678    1.1143    0.0000 C   0  0  0  0  0  0  0  0  0  0  0  0
    1.2352    0.6294    0.0000 C   0  0  0  0  0  0  0  0  0  0  0  0
    0.9803   -0.1553    0.0000 N   0  0  0  0  0  0  0  0  0  0  0  0
    0.1553   -0.1553    0.0000 C   0  0  0  0  0  0  0  0  0  0  0  0
   -0.0997    0.6294    0.0000 C   0  0  0  0  0  0  0  0  0  0  0  0
   -0.3297   -0.8227    0.0000 O   0  0  0  0  0  0  0  0  0  0  0  0
    2.0198    0.8843    0.0000 O   0  0  0  0  0  0  0  0  0  0  0  0
    1.1198    1.7274    0.0000 C   0  0  0  0  0  0  0  0  0  0  0  0
   -0.7912    1.5559    0.0000 C   0  0  0  0  0  0  0  0  0  0  0  0
  1  2  1  0  0  0  0
  2  3  1  0  0  0  0
  3  4  1  0  0  0  0
  4  5  1  0  0  0  0
  5  6  1  0  0  0  0
  2  6  1  0  0  0  0
  5  7  2  0  0  0  0
  3  8  2  0  0  0  0
  2  9  1  0  0  0  0
  1 10  1  0  0  0  0
M  END
>  <Name>
Ethosuximide

>  <CAS>
77-67-8

>  <Formula>
C7H11NO2

>  <MolWt>
141.17 

>  <Bioactivity>
An anticonvulsant especially useful in the treatment of absence seizures unaccompanied by other types of seizures. 

>  <Pathways>
Membrane Transporter/Ion Channel

>  <Target>
Calcium Channel inhibitor

>  <Receptor>
Calcium Channel

>  <Reference>
1. Gomora JC, et al. Mol Pharmacol. 2001 Nov; 60(5):1121-32. 

$$$$
101-26-8
  Mrv1561503291623562D          

 14 13  0  0  0  0            999 V2000
   -0.4397    0.5712    0.0000 C   0  0  0  0  0  0  0  0  0  0  0  0
   -0.4397   -0.2538    0.0000 C   0  0  0  0  0  0  0  0  0  0  0  0
    0.2748   -0.6663    0.0000 O   0  0  0  0  0  0  0  0  0  0  0  0
    0.9893   -0.2538    0.0000 C   0  0  0  0  0  0  0  0  0  0  0  0
    1.7037   -0.6663    0.0000 N   0  0  0  0  0  0  0  0  0  0  0  0
    2.4182   -0.2538    0.0000 C   0  0  0  0  0  0  0  0  0  0  0  0
    1.7037   -1.4913    0.0000 C   0  0  0  0  0  0  0  0  0  0  0  0
    0.9893    0.5712    0.0000 O   0  0  0  0  0  0  0  0  0  0  0  0
   -1.1541   -0.6663    0.0000 C   0  0  0  0  0  0  0  0  0  0  0  0
   -1.8686   -0.2538    0.0000 C   0  0  0  0  0  0  0  0  0  0  0  0
   -1.8686    0.5712    0.0000 C   0  0  0  0  0  0  0  0  0  0  0  0
   -1.1541    0.9837    0.0000 N   0  3  0  0  0  0  0  0  0  0  0  0
   -1.1541    1.8087    0.0000 C   0  0  0  0  0  0  0  0  0  0  0  0
    4.7754    0.0000    0.0000 Br  0  5  0  0  0  0  0  0  0  0  0  0
  1  2  2  0  0  0  0
  2  3  1  0  0  0  0
  3  4  1  0  0  0  0
  4  5  1  0  0  0  0
  5  6  1  0  0  0  0
  5  7  1  0  0  0  0
  4  8  2  0  0  0  0
  2  9  1  0  0  0  0
  9 10  2  0  0  0  0
 10 11  1  0  0  0  0
 11 12  2  0  0  0  0
  1 12  1  0  0  0  0
 12 13  1  0  0  0  0
M  CHG  2  12   1  14  -1
M  END
>  <Name>
Mestinon

>  <CAS>
101-26-8

>  <Formula>
C9H13BrN2O2

>  <MolWt>
261.12 

>  <Bioactivity>
A cholinesterase inhibitor with a slightly longer duration of action than NEOSTIGMINE. It is used in the treatment of myasthenia gravis and to reverse the actions of muscle relaxants. 

>  <Pathways>
Neuroscience

>  <Target>
AChE inhibitor

>  <Receptor>
AChE

>  <Reference>
1. Sinton CM, et al. Toxicol Appl Pharmacol. 2000 May 15;165(1):99-105.

$$$$
59-66-5
  Mrv1561503291623562D          

 13 13  0  0  0  0            999 V2000
    1.2822    3.1768    0.0000 C   0  0  0  0  0  0  0  0  0  0  0  0
    1.2822    2.3518    0.0000 C   0  0  0  0  0  0  0  0  0  0  0  0
    0.5678    1.9393    0.0000 N   0  0  0  0  0  0  0  0  0  0  0  0
    0.5678    1.1143    0.0000 C   0  0  0  0  0  0  0  0  0  0  0  0
    1.2352    0.6294    0.0000 N   0  0  0  0  0  0  0  0  0  0  0  0
    0.9803   -0.1553    0.0000 N   0  0  0  0  0  0  0  0  0  0  0  0
    0.1553   -0.1553    0.0000 C   0  0  0  0  0  0  0  0  0  0  0  0
   -0.0997    0.6294    0.0000 S   0  0  0  0  0  0  0  0  0  0  0  0
   -0.3297   -0.8227    0.0000 S   0  0  0  0  0  0  0  0  0  0  0  0
   -0.8146   -1.4901    0.0000 N   0  0  0  0  0  0  0  0  0  0  0  0
   -0.9971   -0.3378    0.0000 O   0  0  0  0  0  0  0  0  0  0  0  0
    0.3378   -1.3076    0.0000 O   0  0  0  0  0  0  0  0  0  0  0  0
    1.9967    1.9393    0.0000 O   0  0  0  0  0  0  0  0  0  0  0  0
  1  2  1  0  0  0  0
  2  3  1  0  0  0  0
  3  4  1  0  0  0  0
  4  5  2  0  0  0  0
  5  6  1  0  0  0  0
  6  7  2  0  0  0  0
  7  8  1  0  0  0  0
  4  8  1  0  0  0  0
  7  9  1  0  0  0  0
  9 10  1  0  0  0  0
  9 11  2  0  0  0  0
  9 12  2  0  0  0  0
  2 13  2  0  0  0  0
M  END
>  <Name>
Acetazolamide

>  <CAS>
59-66-5

>  <Formula>
C4H6N4O3S2

>  <MolWt>
222.25 

>  <Bioactivity>
One of the CARBONIC ANHYDRASE INHIBITORS that is sometimes effective against absence seizures. It is sometimes useful also as an adjunct in the treatment of tonic-clonic, myoclonic, and atonic seizures, particularly in women whose seizures occur or are exacerbated at specific times in the menstrual cycle. However, its usefulness is transient often because of rapid development of tolerance. Its antiepileptic effect may be due to its inhibitory effect on brain carbonic anhydrase, which leads to an increased transneuronal chloride gradient, increased chloride current, and increased inhibition.  

>  <Pathways>
Metabolism

>  <Target>
Carbonic anhydrase inhibitor

>  <Receptor>
CA

>  <Reference>
1. Puscas I, et al. J Pharmacol Exp Ther. 1996 Jun;277(3):1464-6.

$$$$
3206-73-3
  Mrv1561503291623562D          

 12 12  0  0  0  0            999 V2000
    1.0396   -1.0396    0.0000 C   0  0  0  0  0  0  0  0  0  0  0  0
    0.3251   -0.6271    0.0000 C   0  0  0  0  0  0  0  0  0  0  0  0
   -0.4286   -0.9626    0.0000 C   0  0  0  0  0  0  0  0  0  0  0  0
   -0.9806   -0.3495    0.0000 C   0  0  0  0  0  0  0  0  0  0  0  0
   -0.5681    0.3649    0.0000 S   0  0  0  0  0  0  0  0  0  0  0  0
    0.2389    0.1934    0.0000 S   0  0  0  0  0  0  0  0  0  0  0  0
    1.7540   -0.6271    0.0000 C   0  0  0  0  0  0  0  0  0  0  0  0
    2.4685   -1.0396    0.0000 C   0  0  0  0  0  0  0  0  0  0  0  0
    3.1830   -0.6271    0.0000 C   0  0  0  0  0  0  0  0  0  0  0  0
    3.8974   -1.0396    0.0000 C   0  0  0  0  0  0  0  0  0  0  0  0
    4.6119   -0.6271    0.0000 N   0  0  0  0  0  0  0  0  0  0  0  0
    3.8974   -1.8646    0.0000 O   0  0  0  0  0  0  0  0  0  0  0  0
  1  2  1  0  0  0  0
  2  3  1  0  0  0  0
  3  4  1  0  0  0  0
  4  5  1  0  0  0  0
  5  6  1  0  0  0  0
  2  6  1  0  0  0  0
  1  7  1  0  0  0  0
  7  8  1  0  0  0  0
  8  9  1  0  0  0  0
  9 10  1  0  0  0  0
 10 11  1  0  0  0  0
 10 12  2  0  0  0  0
M  END
>  <Name>
Thioctamide

>  <CAS>
3206-73-3

>  <Formula>
C8H15NOS2

>  <MolWt>
205.34 

>  <Bioactivity>
Lipoamide is a trivial name for 6,8-dithiooctanoic amide. It is 6,8-dithiooctanoic acid's functional form where the carboxyl group is attached to protein (or any other amine) by an amide linkage (containing -NH2). Sometimes lipoamide is used to refer to protein bound lipoic acid, but this can be misleading as this is technically incorrect. Lipoyl-protein or lipoyl-domain are better terms to refer to protein bound lipoic acid. 

>  <Pathways>
Others

>  <Target>
Others

>  <Receptor>
Others

>  <Reference>
1. Bryk R, et al. Biochemistry. 2013 Dec 23;52(51):9375-84. 

$$$$
22071-15-4
  Mrv1561503291623562D          

 19 20  0  0  0  0            999 V2000
    2.8579   -1.6500    0.0000 C   0  0  0  0  0  0  0  0  0  0  0  0
    2.8579   -2.4750    0.0000 C   0  0  0  0  0  0  0  0  0  0  0  0
    3.5724   -2.8875    0.0000 C   0  0  0  0  0  0  0  0  0  0  0  0
    3.5724   -3.7125    0.0000 C   0  0  0  0  0  0  0  0  0  0  0  0
    4.2868   -4.1250    0.0000 C   0  0  0  0  0  0  0  0  0  0  0  0
    4.2868   -4.9500    0.0000 C   0  0  0  0  0  0  0  0  0  0  0  0
    3.5724   -5.3625    0.0000 C   0  0  0  0  0  0  0  0  0  0  0  0
    2.8579   -4.9500    0.0000 C   0  0  0  0  0  0  0  0  0  0  0  0
    2.8579   -4.1250    0.0000 C   0  0  0  0  0  0  0  0  0  0  0  0
    4.2868   -2.4750    0.0000 O   0  0  0  0  0  0  0  0  0  0  0  0
    2.1434   -2.8875    0.0000 C   0  0  0  0  0  0  0  0  0  0  0  0
    1.4289   -2.4750    0.0000 C   0  0  0  0  0  0  0  0  0  0  0  0
    1.4289   -1.6500    0.0000 C   0  0  0  0  0  0  0  0  0  0  0  0
    2.1434   -1.2375    0.0000 C   0  0  0  0  0  0  0  0  0  0  0  0
    2.1434   -0.4125    0.0000 C   0  0  0  0  0  0  0  0  0  0  0  0
    2.8579   -0.0000    0.0000 C   0  0  0  0  0  0  0  0  0  0  0  0
    2.8579    0.8250    0.0000 O   0  0  0  0  0  0  0  0  0  0  0  0
    3.5724   -0.4125    0.0000 O   0  0  0  0  0  0  0  0  0  0  0  0
    1.4289    0.0000    0.0000 C   0  0  0  0  0  0  0  0  0  0  0  0
  1  2  2  0  0  0  0
  2  3  1  0  0  0  0
  3  4  1  0  0  0  0
  4  5  2  0  0  0  0
  5  6  1  0  0  0  0
  6  7  2  0  0  0  0
  7  8  1  0  0  0  0
  8  9  2  0  0  0  0
  4  9  1  0  0  0  0
  3 10  2  0  0  0  0
  2 11  1  0  0  0  0
 11 12  2  0  0  0  0
 12 13  1  0  0  0  0
 13 14  2  0  0  0  0
  1 14  1  0  0  0  0
 14 15  1  0  0  0  0
 15 16  1  0  0  0  0
 16 17  1  0  0  0  0
 16 18  2  0  0  0  0
 15 19  1  0  0  0  0
M  END
>  <Name>
Ketoprofen

>  <CAS>
22071-15-4

>  <Formula>
C16H14O3

>  <MolWt>
254.28 

>  <Bioactivity>
Ketoprofen is a non-selective NSAID with IC50 of 0.5 ?M and 2.33 ?M for human recombinant COX-1 and COX-2, respectively.

>  <Pathways>
Neuroscience

>  <Target>
MRP inhibitor;COX inhibitor

>  <Receptor>
MRAP4; Prostaglandin G/H synthase 1,2

>  <Reference>
1. Parsadaniantz SM, et al. J Neuroendocrinol. 2000 Aug; 12(8):766-73.

$$$$
60-56-0
  Mrv1561503291623562D          

  7  7  0  0  0  0            999 V2000
    0.5678    1.9393    0.0000 C   0  0  0  0  0  0  0  0  0  0  0  0
    0.5678    1.1143    0.0000 N   0  0  0  0  0  0  0  0  0  0  0  0
    1.2352    0.6294    0.0000 C   0  0  0  0  0  0  0  0  0  0  0  0
    0.9803   -0.1553    0.0000 N   0  0  0  0  0  0  0  0  0  0  0  0
    0.1553   -0.1553    0.0000 C   0  0  0  0  0  0  0  0  0  0  0  0
   -0.0997    0.6294    0.0000 C   0  0  0  0  0  0  0  0  0  0  0  0
    2.0198    0.8843    0.0000 S   0  0  0  0  0  0  0  0  0  0  0  0
  1  2  1  0  0  0  0
  2  3  1  0  0  0  0
  3  4  1  0  0  0  0
  4  5  1  0  0  0  0
  5  6  2  0  0  0  0
  2  6  1  0  0  0  0
  3  7  2  0  0  0  0
M  END
>  <Name>
Methimazole

>  <CAS>
60-56-0

>  <Formula>
C4H6N2S

>  <MolWt>
114.17 

>  <Bioactivity>
Methimazole is an antithyroid medicine.

>  <Pathways>
Endocrinology/ Hormones

>  <Target>
Thyroid Hormone Synthesis inhibitor

>  <Receptor>
Thyroid peripheral conversion

>  <Reference>
1. Sugawara M, et al. Thyroid. 1999 May; 9(5):513-8.

$$$$
396-01-0
  Mrv1561503291623562D          

 19 21  0  0  0  0            999 V2000
   -1.4289    0.8250    0.0000 C   0  0  0  0  0  0  0  0  0  0  0  0
   -1.4289   -0.0000    0.0000 C   0  0  0  0  0  0  0  0  0  0  0  0
   -0.7145   -0.4125    0.0000 C   0  0  0  0  0  0  0  0  0  0  0  0
   -0.7145   -1.2375    0.0000 C   0  0  0  0  0  0  0  0  0  0  0  0
   -0.0000   -1.6500    0.0000 N   0  0  0  0  0  0  0  0  0  0  0  0
    0.7145   -1.2375    0.0000 C   0  0  0  0  0  0  0  0  0  0  0  0
    0.7145   -0.4125    0.0000 C   0  0  0  0  0  0  0  0  0  0  0  0
   -0.0000   -0.0000    0.0000 N   0  0  0  0  0  0  0  0  0  0  0  0
    1.4289    0.0000    0.0000 C   0  0  0  0  0  0  0  0  0  0  0  0
    2.1434   -0.4125    0.0000 N   0  0  0  0  0  0  0  0  0  0  0  0
    2.1434   -1.2375    0.0000 C   0  0  0  0  0  0  0  0  0  0  0  0
    1.4289   -1.6500    0.0000 N   0  0  0  0  0  0  0  0  0  0  0  0
    2.8579   -1.6500    0.0000 N   0  0  0  0  0  0  0  0  0  0  0  0
    1.4289    0.8250    0.0000 N   0  0  0  0  0  0  0  0  0  0  0  0
   -1.4289   -1.6500    0.0000 N   0  0  0  0  0  0  0  0  0  0  0  0
   -2.1434   -0.4125    0.0000 C   0  0  0  0  0  0  0  0  0  0  0  0
   -2.8579   -0.0000    0.0000 C   0  0  0  0  0  0  0  0  0  0  0  0
   -2.8579    0.8250    0.0000 C   0  0  0  0  0  0  0  0  0  0  0  0
   -2.1434    1.2375    0.0000 C   0  0  0  0  0  0  0  0  0  0  0  0
  1  2  2  0  0  0  0
  2  3  1  0  0  0  0
  3  4  2  0  0  0  0
  4  5  1  0  0  0  0
  5  6  2  0  0  0  0
  6  7  1  0  0  0  0
  7  8  2  0  0  0  0
  3  8  1  0  0  0  0
  7  9  1  0  0  0  0
  9 10  2  0  0  0  0
 10 11  1  0  0  0  0
 11 12  2  0  0  0  0
  6 12  1  0  0  0  0
 11 13  1  0  0  0  0
  9 14  1  0  0  0  0
  4 15  1  0  0  0  0
  2 16  1  0  0  0  0
 16 17  2  0  0  0  0
 17 18  1  0  0  0  0
 18 19  2  0  0  0  0
  1 19  1  0  0  0  0
M  END
>  <Name>
Ademine

>  <CAS>
396-01-0

>  <Formula>
C12H11N7

>  <MolWt>
253.26 

>  <Bioactivity>
Triamterene is a Potassium-sparing Diuretic. The physiologic effect of triamterene is by means of Decreased Renal K+ Excretion and Increased Diuresis.

>  <Pathways>
Membrane Transporter/Ion Channel

>  <Target>
Sodium Channel inhibitor

>  <Receptor>
Sodium Channel

>  <Reference>
1. Busch AE, et al. Pflugers Arch, 1996, 432(5), 760-766.

$$$$
T0844
  Mrv1561503291623562D          

 19 20  0  0  0  0            999 V2000
   -0.7145   -2.8875    0.0000 C   0  0  0  0  0  0  0  0  0  0  0  0
   -1.4289   -3.3000    0.0000 C   0  0  0  0  0  0  0  0  0  0  0  0
   -1.4289   -4.1250    0.0000 S   0  0  0  0  0  0  0  0  0  0  0  0
   -1.4289   -4.9500    0.0000 N   0  0  0  0  0  0  0  0  0  0  0  0
   -0.7145   -5.3625    0.0000 C   0  0  0  0  0  0  0  0  0  0  0  0
   -0.0000   -4.9500    0.0000 C   0  0  0  0  0  0  0  0  0  0  0  0
    0.7145   -5.3625    0.0000 C   0  0  0  0  0  0  0  0  0  0  0  0
    0.7145   -6.1875    0.0000 C   0  0  0  0  0  0  0  0  0  0  0  0
    1.4289   -6.6000    0.0000 O   0  0  0  0  0  0  0  0  0  0  0  0
    1.4289   -7.4250    0.0000 C   0  0  0  0  0  0  0  0  0  0  0  0
   -0.0000   -6.6000    0.0000 N   0  0  0  0  0  0  0  0  0  0  0  0
   -0.7145   -6.1875    0.0000 N   0  0  0  0  0  0  0  0  0  0  0  0
   -0.6039   -4.1250    0.0000 O   0  0  0  0  0  0  0  0  0  0  0  0
   -2.2539   -4.1250    0.0000 O   0  0  0  0  0  0  0  0  0  0  0  0
   -2.1434   -2.8875    0.0000 C   0  0  0  0  0  0  0  0  0  0  0  0
   -2.1434   -2.0625    0.0000 C   0  0  0  0  0  0  0  0  0  0  0  0
   -1.4289   -1.6500    0.0000 C   0  0  0  0  0  0  0  0  0  0  0  0
   -0.7145   -2.0625    0.0000 C   0  0  0  0  0  0  0  0  0  0  0  0
   -1.4289   -0.8250    0.0000 N   0  0  0  0  0  0  0  0  0  0  0  0
  1  2  2  0  0  0  0
  2  3  1  0  0  0  0
  3  4  1  0  0  0  0
  4  5  1  0  0  0  0
  5  6  2  0  0  0  0
  6  7  1  0  0  0  0
  7  8  2  0  0  0  0
  8  9  1  0  0  0  0
  9 10  1  0  0  0  0
  8 11  1  0  0  0  0
 11 12  2  0  0  0  0
  5 12  1  0  0  0  0
  3 13  2  0  0  0  0
  3 14  2  0  0  0  0
  2 15  1  0  0  0  0
 15 16  2  0  0  0  0
 16 17  1  0  0  0  0
 17 18  2  0  0  0  0
  1 18  1  0  0  0  0
 17 19  1  0  0  0  0
M  END
>  <Name>
Sulfamethoxypyridazine

>  <CAS>
80-35-3

>  <Formula>
C11H12N4O3S

>  <MolWt>
280.30 

>  <Bioactivity>
Sulfamethoxypyridazine is a long-acting sulfonamide for treatment of Dermatitis herpetiformis.

>  <Pathways>
Microbiology & Virology

>  <Target>
Antibiotic

>  <Receptor>
Others

>  <Reference>
1. Tafintseva Iiu, et al. Prikl Biokhim Mikrobiol. 2010 Mar-Apr; 46(2):232-6. 

$$$$
T0849
  Mrv1561503291623562D          

 17 18  0  0  0  0            999 V2000
    1.4289   -2.4750    0.0000 C   0  0  0  0  0  0  0  0  0  0  0  0
    0.7145   -2.8875    0.0000 C   0  0  0  0  0  0  0  0  0  0  0  0
    0.7145   -3.7125    0.0000 C   0  0  0  0  0  0  0  0  0  0  0  0
    1.4289   -4.1250    0.0000 C   0  0  0  0  0  0  0  0  0  0  0  0
    1.4289   -4.9500    0.0000 N   0  0  0  0  0  0  0  0  0  0  0  0
    0.7145   -5.3625    0.0000 C   0  0  0  0  0  0  0  0  0  0  0  0
    0.7145   -6.1875    0.0000 N   0  0  0  0  0  0  0  0  0  0  0  0
   -0.0000   -4.9500    0.0000 N   0  0  0  0  0  0  0  0  0  0  0  0
   -0.0000   -4.1250    0.0000 C   0  0  0  0  0  0  0  0  0  0  0  0
   -0.7145   -3.7125    0.0000 N   0  0  0  0  0  0  0  0  0  0  0  0
    2.1434   -3.7125    0.0000 C   0  0  0  0  0  0  0  0  0  0  0  0
    2.8579   -4.1250    0.0000 C   0  0  0  0  0  0  0  0  0  0  0  0
   -0.0000   -2.4750    0.0000 C   0  0  0  0  0  0  0  0  0  0  0  0
   -0.0000   -1.6500    0.0000 C   0  0  0  0  0  0  0  0  0  0  0  0
    0.7145   -1.2375    0.0000 C   0  0  0  0  0  0  0  0  0  0  0  0
    1.4289   -1.6500    0.0000 C   0  0  0  0  0  0  0  0  0  0  0  0
    0.7145   -0.4125    0.0000 Cl  0  0  0  0  0  0  0  0  0  0  0  0
  1  2  2  0  0  0  0
  2  3  1  0  0  0  0
  3  4  2  0  0  0  0
  4  5  1  0  0  0  0
  5  6  2  0  0  0  0
  6  7  1  0  0  0  0
  6  8  1  0  0  0  0
  8  9  2  0  0  0  0
  3  9  1  0  0  0  0
  9 10  1  0  0  0  0
  4 11  1  0  0  0  0
 11 12  1  0  0  0  0
  2 13  1  0  0  0  0
 13 14  2  0  0  0  0
 14 15  1  0  0  0  0
 15 16  2  0  0  0  0
  1 16  1  0  0  0  0
 15 17  1  0  0  0  0
M  END
>  <Name>
Pyrimethamine

>  <CAS>
58-14-0

>  <Formula>
C12H13ClN4

>  <MolWt>
248.71 

>  <Bioactivity>
Pyrimethamine is a dihydrofolate reductase(DHFR) inhibitor with an IC50 of 15.4 nM. It is a medication used for protozoal infections. It is commonly used as an antimalarial drug (for both treatment and prevention of malaria), and is also used (combined with sulfadiazine) in the treatment of Toxoplasma gondii infections in immune-compromised patients, such as HIV-positive individuals. It interferes with folic acid synthesis by inhibiting the enzyme dihydrofolate reductase (DHFR). Folic acid is needed for DNA and RNA synthesis in many species, including protozoa.

>  <Pathways>
Metabolism

>  <Target>
DHFR inhibitor

>  <Receptor>
DHFR

>  <Reference>
1. Rastelli G, et al. Bioorg Med Chem Lett. 2003 Oct 6;13(19):3257-60.

$$$$
58-89-9
  Mrv1561503291623562D          

 12 12  0  0  0  0            999 V2000
    0.7145    1.2375    0.0000 C   0  0  0  0  0  0  0  0  0  0  0  0
    0.7145    2.0625    0.0000 Cl  0  0  0  0  0  0  0  0  0  0  0  0
    1.4289    0.8250    0.0000 C   0  0  0  0  0  0  0  0  0  0  0  0
    2.1434    1.2375    0.0000 Cl  0  0  0  0  0  0  0  0  0  0  0  0
    1.4289    0.0000    0.0000 C   0  0  0  0  0  0  0  0  0  0  0  0
    2.1434   -0.4125    0.0000 Cl  0  0  0  0  0  0  0  0  0  0  0  0
    0.7145   -0.4125    0.0000 C   0  0  0  0  0  0  0  0  0  0  0  0
    0.7145   -1.2375    0.0000 Cl  0  0  0  0  0  0  0  0  0  0  0  0
    0.0000   -0.0000    0.0000 C   0  0  0  0  0  0  0  0  0  0  0  0
   -0.7145   -0.4125    0.0000 Cl  0  0  0  0  0  0  0  0  0  0  0  0
    0.0000    0.8250    0.0000 C   0  0  0  0  0  0  0  0  0  0  0  0
   -0.7145    1.2375    0.0000 Cl  0  0  0  0  0  0  0  0  0  0  0  0
  1  2  1  0  0  0  0
  1  3  1  0  0  0  0
  3  4  1  0  0  0  0
  3  5  1  0  0  0  0
  5  6  1  0  0  0  0
  5  7  1  0  0  0  0
  7  8  1  0  0  0  0
  7  9  1  0  0  0  0
  9 10  1  0  0  0  0
  9 11  1  0  0  0  0
  1 11  1  0  0  0  0
 11 12  1  0  0  0  0
M  END
>  <Name>
Lindane

>  <CAS>
58-89-9

>  <Formula>
C6H6Cl6

>  <MolWt>
290.83 

>  <Bioactivity>
An organochlorine insecticide that has been used as a pediculicide and a scabicide. Lindane has been banned in California, United Kingdom, Australia, and many western countries due to concerns about neurotoxicity and adverse effects on the environment. In Canada, Lindane is not recommmended as a first-line therapy due to reports of resistance, neurotoxicity, and bone marrow suppression, but has been approved by the FDA as a second-line therapy for topical treatment of pediculosis capitis (head lice), pediculosis pubis (pubic lice), or scabies in patients greater than two years of age who cannot tolerate or have failed first-line treatment. Lindane is still allowed for pharmaceutical use until 2015. 

>  <Pathways>
Neuroscience

>  <Target>
GABAR antagonist

>  <Receptor>
GABAR;GLR

>  <Reference>
1. Anand M, et al. Drug Chem Toxicol. 1998, 21(1):35-46. 

$$$$
530-78-9
  Mrv1561503291623562D          

 20 21  0  0  0  0            999 V2000
    2.8579   -2.4750    0.0000 C   0  0  0  0  0  0  0  0  0  0  0  0
    2.8579   -1.6500    0.0000 C   0  0  0  0  0  0  0  0  0  0  0  0
    2.1434   -1.2375    0.0000 C   0  0  0  0  0  0  0  0  0  0  0  0
    1.4289   -1.6500    0.0000 C   0  0  0  0  0  0  0  0  0  0  0  0
    1.4289   -2.4750    0.0000 C   0  0  0  0  0  0  0  0  0  0  0  0
    2.1434   -2.8875    0.0000 C   0  0  0  0  0  0  0  0  0  0  0  0
    2.1434   -0.4125    0.0000 C   0  0  0  0  0  0  0  0  0  0  0  0
    2.8579   -0.0000    0.0000 O   0  0  0  0  0  0  0  0  0  0  0  0
    1.4289   -0.0000    0.0000 O   0  0  0  0  0  0  0  0  0  0  0  0
    3.5724   -1.2375    0.0000 N   0  0  0  0  0  0  0  0  0  0  0  0
    4.2868   -1.6500    0.0000 C   0  0  0  0  0  0  0  0  0  0  0  0
    5.0013   -1.2375    0.0000 C   0  0  0  0  0  0  0  0  0  0  0  0
    5.7158   -1.6500    0.0000 C   0  0  0  0  0  0  0  0  0  0  0  0
    5.7158   -2.4750    0.0000 C   0  0  0  0  0  0  0  0  0  0  0  0
    5.0013   -2.8875    0.0000 C   0  0  0  0  0  0  0  0  0  0  0  0
    4.2868   -2.4750    0.0000 C   0  0  0  0  0  0  0  0  0  0  0  0
    6.4302   -1.2375    0.0000 C   0  0  0  0  0  0  0  0  0  0  0  0
    7.1447   -0.8250    0.0000 F   0  0  0  0  0  0  0  0  0  0  0  0
    6.8427   -1.9520    0.0000 F   0  0  0  0  0  0  0  0  0  0  0  0
    6.0177   -0.5230    0.0000 F   0  0  0  0  0  0  0  0  0  0  0  0
  1  2  2  0  0  0  0
  2  3  1  0  0  0  0
  3  4  2  0  0  0  0
  4  5  1  0  0  0  0
  5  6  2  0  0  0  0
  1  6  1  0  0  0  0
  3  7  1  0  0  0  0
  7  8  1  0  0  0  0
  7  9  2  0  0  0  0
  2 10  1  0  0  0  0
 10 11  1  0  0  0  0
 11 12  2  0  0  0  0
 12 13  1  0  0  0  0
 13 14  2  0  0  0  0
 14 15  1  0  0  0  0
 15 16  2  0  0  0  0
 11 16  1  0  0  0  0
 13 17  1  0  0  0  0
 17 18  1  0  0  0  0
 17 19  1  0  0  0  0
 17 20  1  0  0  0  0
M  END
>  <Name>
Flufenamic acid

>  <CAS>
530-78-9

>  <Formula>
C14H10F3NO2

>  <MolWt>
281.23 

>  <Bioactivity>
Flufenamic Acid is an anti-inflammatory agent, and also acts as an ion channel modulator.

>  <Pathways>
Neuroscience

>  <Target>
COX inhibitor

>  <Receptor>
Prostaglandin G/H synthase

>  <Reference>
1. White MM, et al. Mol Pharmacol, 1990, 37(5), 720-724.

$$$$
2438-72-4
  Mrv1561503291623562D          

 16 16  0  0  0  0            999 V2000
    0.7145   -0.4125    0.0000 C   0  0  0  0  0  0  0  0  0  0  0  0
    0.0000   -0.0000    0.0000 C   0  0  0  0  0  0  0  0  0  0  0  0
   -0.7145   -0.4125    0.0000 C   0  0  0  0  0  0  0  0  0  0  0  0
   -0.7145   -1.2375    0.0000 C   0  0  0  0  0  0  0  0  0  0  0  0
   -1.4289   -1.6500    0.0000 N   0  0  0  0  0  0  0  0  0  0  0  0
   -1.4289   -2.4750    0.0000 O   0  0  0  0  0  0  0  0  0  0  0  0
    0.0000   -1.6500    0.0000 O   0  0  0  0  0  0  0  0  0  0  0  0
   -0.0000    0.8250    0.0000 C   0  0  0  0  0  0  0  0  0  0  0  0
    0.7145    1.2375    0.0000 C   0  0  0  0  0  0  0  0  0  0  0  0
    1.4289    0.8250    0.0000 C   0  0  0  0  0  0  0  0  0  0  0  0
    1.4289   -0.0000    0.0000 C   0  0  0  0  0  0  0  0  0  0  0  0
    2.1434    1.2375    0.0000 O   0  0  0  0  0  0  0  0  0  0  0  0
    2.8579    0.8250    0.0000 C   0  0  0  0  0  0  0  0  0  0  0  0
    3.5724    1.2375    0.0000 C   0  0  0  0  0  0  0  0  0  0  0  0
    4.2868    0.8250    0.0000 C   0  0  0  0  0  0  0  0  0  0  0  0
    5.0013    1.2375    0.0000 C   0  0  0  0  0  0  0  0  0  0  0  0
  1  2  2  0  0  0  0
  2  3  1  0  0  0  0
  3  4  1  0  0  0  0
  4  5  1  0  0  0  0
  5  6  1  0  0  0  0
  4  7  2  0  0  0  0
  2  8  1  0  0  0  0
  8  9  2  0  0  0  0
  9 10  1  0  0  0  0
 10 11  2  0  0  0  0
  1 11  1  0  0  0  0
 10 12  1  0  0  0  0
 12 13  1  0  0  0  0
 13 14  1  0  0  0  0
 14 15  1  0  0  0  0
 15 16  1  0  0  0  0
M  END
>  <Name>
Bufexamac

>  <CAS>
2438-72-4

>  <Formula>
C12H17NO3

>  <MolWt>
223.27 

>  <Bioactivity>
Bufexamac is a COX inhibitor for IFN-? release.

>  <Pathways>
Neuroscience

>  <Target>
COX inhibitor

>  <Receptor>
IFN-?

>  <Reference>
1. Kränke B, et al. Contact Dermatitis. 1997 Apr;36(4):212-5.

$$$$
62-13-5
  Mrv1561503291623562D          

 15 13  0  0  0  0            999 V2000
    0.4125    0.0000    0.0000 H   0  3  0  0  0  0  0  0  0  0  0  0
    4.4416    0.5394    0.0000 C   0  0  0  0  0  0  0  0  0  0  0  0
    4.4416   -0.2856    0.0000 C   0  0  0  0  0  0  0  0  0  0  0  0
    5.1561   -0.6981    0.0000 C   0  0  0  0  0  0  0  0  0  0  0  0
    5.1561   -1.5231    0.0000 O   0  0  0  0  0  0  0  0  0  0  0  0
    5.8706   -0.2856    0.0000 C   0  0  0  0  0  0  0  0  0  0  0  0
    6.5850   -0.6981    0.0000 N   0  0  0  0  0  0  0  0  0  0  0  0
    7.2995   -0.2856    0.0000 C   0  0  0  0  0  0  0  0  0  0  0  0
    3.7272   -0.6981    0.0000 C   0  0  0  0  0  0  0  0  0  0  0  0
    3.0127   -0.2856    0.0000 C   0  0  0  0  0  0  0  0  0  0  0  0
    3.0127    0.5394    0.0000 C   0  0  0  0  0  0  0  0  0  0  0  0
    3.7272    0.9519    0.0000 C   0  0  0  0  0  0  0  0  0  0  0  0
    3.7272    1.7769    0.0000 O   0  0  0  0  0  0  0  0  0  0  0  0
    2.2982    0.9519    0.0000 O   0  0  0  0  0  0  0  0  0  0  0  0
   -0.4125    0.0000    0.0000 Cl  0  5  0  0  0  0  0  0  0  0  0  0
  2  3  2  0  0  0  0
  3  4  1  0  0  0  0
  4  5  2  0  0  0  0
  4  6  1  0  0  0  0
  6  7  1  0  0  0  0
  7  8  1  0  0  0  0
  3  9  1  0  0  0  0
  9 10  2  0  0  0  0
 10 11  1  0  0  0  0
 11 12  2  0  0  0  0
  2 12  1  0  0  0  0
 12 13  1  0  0  0  0
 11 14  1  0  0  0  0
M  CHG  2   1   1  15  -1
M  END
>  <Name>
Adrenalone HCl

>  <CAS>
62-13-5

>  <Formula>
C9H11NO3.HCl.xH2O

>  <MolWt>
217.65 

>  <Bioactivity>
Adrenalone is an adrenergic agonist used as a topical vasoconstrictor and hemostatic, mainly acts on alpha-1 adrenergic receptors.

>  <Pathways>
GPCR/G Protein

>  <Target>
Adrenergic Receptor

>  <Receptor>
?-adrenergic receptor

>  <Reference>
1. Schlessinger A, et al. Proc Natl Acad Sci U S A, 2011, 108(38), 15810-15815.

$$$$
54-85-3
  Mrv1561503291623562D          

 10 10  0  0  0  0            999 V2000
    0.0000    0.8250    0.0000 C   0  0  0  0  0  0  0  0  0  0  0  0
    0.7145    1.2375    0.0000 C   0  0  0  0  0  0  0  0  0  0  0  0
    0.7145    2.0625    0.0000 C   0  0  0  0  0  0  0  0  0  0  0  0
    0.0000    2.4750    0.0000 N   0  0  0  0  0  0  0  0  0  0  0  0
    0.0000    3.3000    0.0000 N   0  0  0  0  0  0  0  0  0  0  0  0
    1.4289    2.4750    0.0000 O   0  0  0  0  0  0  0  0  0  0  0  0
    1.4289    0.8250    0.0000 C   0  0  0  0  0  0  0  0  0  0  0  0
    1.4289   -0.0000    0.0000 C   0  0  0  0  0  0  0  0  0  0  0  0
    0.7145   -0.4125    0.0000 N   0  0  0  0  0  0  0  0  0  0  0  0
   -0.0000    0.0000    0.0000 C   0  0  0  0  0  0  0  0  0  0  0  0
  1  2  2  0  0  0  0
  2  3  1  0  0  0  0
  3  4  1  0  0  0  0
  4  5  1  0  0  0  0
  3  6  2  0  0  0  0
  2  7  1  0  0  0  0
  7  8  2  0  0  0  0
  8  9  1  0  0  0  0
  9 10  2  0  0  0  0
  1 10  1  0  0  0  0
M  END
>  <Name>
Isoniazid

>  <CAS>
54-85-3

>  <Formula>
C6H7N3O

>  <MolWt>
137.14 

>  <Bioactivity>
Isoniazid is a prodrug and must be activated by bacterial catalase. Specficially, activation is associated with reduction of the mycobacterial ferric KatG catalase-peroxidase by hydrazine and reaction with oxygen to form an oxyferrous enzyme complex. Once activated, isoniazid inhibits the synthesis of mycoloic acids, an essential component of the bacterial cell wall. At therapeutic levels isoniazid is bacteriocidal against actively growing intracellular and extracellular Mycobacterium tuberculosis organisms. 

>  <Pathways>
Enzyme

>  <Target>
Reductase inhibitor; Catalase-peroxidase

>  <Receptor>
NAPDH;Catalase-peroxidase

>  <Reference>
1. Pym AS, et al. Mol Microbiol. 2001 May;40(4):879-89. 

$$$$
T1141
  Mrv1561503291623562D          

 21 23  0  0  0  0            999 V2000
    3.2789    1.2375    0.0000 C   0  0  0  0  0  0  0  0  0  0  0  0
    3.9934    0.8250    0.0000 C   0  0  0  0  0  0  0  0  0  0  0  0
    4.7079    1.2375    0.0000 S   0  0  0  0  0  0  0  0  0  0  0  0
    5.4223    0.8250    0.0000 C   0  0  0  0  0  0  0  0  0  0  0  0
    6.1368    1.2375    0.0000 C   0  0  0  0  0  0  0  0  0  0  0  0
    6.8513    0.8250    0.0000 C   0  0  0  0  0  0  0  0  0  0  0  0
    6.8513    0.0000    0.0000 C   0  0  0  0  0  0  0  0  0  0  0  0
    6.1368   -0.4125    0.0000 C   0  0  0  0  0  0  0  0  0  0  0  0
    5.4223    0.0000    0.0000 C   0  0  0  0  0  0  0  0  0  0  0  0
    3.9934    0.0000    0.0000 C   0  0  0  0  0  0  0  0  0  0  0  0
    3.2789   -0.4125    0.0000 C   0  0  0  0  0  0  0  0  0  0  0  0
    2.5645   -0.0000    0.0000 C   0  0  0  0  0  0  0  0  0  0  0  0
    2.5645    0.8250    0.0000 C   0  0  0  0  0  0  0  0  0  0  0  0
    1.7798    1.0799    0.0000 N   0  0  0  0  0  0  0  0  0  0  0  0
    1.2949    0.4125    0.0000 C   0  0  0  0  0  0  0  0  0  0  0  0
    1.7798   -0.2549    0.0000 N   0  0  0  0  0  0  0  0  0  0  0  0
    0.4699    0.4125    0.0000 N   0  0  0  0  0  0  0  0  0  0  0  0
    0.0574   -0.3020    0.0000 C   0  0  0  0  0  0  0  0  0  0  0  0
   -0.7676   -0.3020    0.0000 O   0  0  0  0  0  0  0  0  0  0  0  0
   -1.1801   -1.0164    0.0000 C   0  0  0  0  0  0  0  0  0  0  0  0
    0.4699   -1.0164    0.0000 O   0  0  0  0  0  0  0  0  0  0  0  0
  1  2  2  0  0  0  0
  2  3  1  0  0  0  0
  3  4  1  0  0  0  0
  4  5  2  0  0  0  0
  5  6  1  0  0  0  0
  6  7  2  0  0  0  0
  7  8  1  0  0  0  0
  8  9  2  0  0  0  0
  4  9  1  0  0  0  0
  2 10  1  0  0  0  0
 10 11  2  0  0  0  0
 11 12  1  0  0  0  0
 12 13  2  0  0  0  0
  1 13  1  0  0  0  0
 13 14  1  0  0  0  0
 14 15  1  0  0  0  0
 15 16  2  0  0  0  0
 12 16  1  0  0  0  0
 15 17  1  0  0  0  0
 17 18  1  0  0  0  0
 18 19  1  0  0  0  0
 19 20  1  0  0  0  0
 18 21  2  0  0  0  0
M  END
>  <Name>
Fenbendazole

>  <CAS>
43210-67-9

>  <Formula>
C15H13N3O2S

>  <MolWt>
299.35 

>  <Bioactivity>
An anthelmintic drug belonging to the benzimidazole group mainly used for the treatment of pinworm in animals. Recently, fenbendazole has been shown to selectively induce cytotoxicity in cancer cells via impairment of proteasomal function and induction of unfolded protein response.

>  <Pathways>
Microbiology & Virology

>  <Target>
Antiparasitic

>  <Receptor>
Antiparasitic

>  <Reference>
1. Yu CG, et al. Neuroscience. 2014 Jan 3;256:163-9. 

$$$$
T1152
  Mrv1561503291623562D          

 18 19  0  0  0  0            999 V2000
    3.2789    1.2375    0.0000 C   0  0  0  0  0  0  0  0  0  0  0  0
    3.9934    0.8250    0.0000 C   0  0  0  0  0  0  0  0  0  0  0  0
    4.7079    1.2375    0.0000 S   0  0  0  0  0  0  0  0  0  0  0  0
    5.4223    0.8250    0.0000 C   0  0  0  0  0  0  0  0  0  0  0  0
    6.1368    1.2375    0.0000 C   0  0  0  0  0  0  0  0  0  0  0  0
    6.8513    0.8250    0.0000 C   0  0  0  0  0  0  0  0  0  0  0  0
    3.9934    0.0000    0.0000 C   0  0  0  0  0  0  0  0  0  0  0  0
    3.2789   -0.4125    0.0000 C   0  0  0  0  0  0  0  0  0  0  0  0
    2.5645   -0.0000    0.0000 C   0  0  0  0  0  0  0  0  0  0  0  0
    2.5645    0.8250    0.0000 C   0  0  0  0  0  0  0  0  0  0  0  0
    1.7798    1.0799    0.0000 N   0  0  0  0  0  0  0  0  0  0  0  0
    1.2949    0.4125    0.0000 C   0  0  0  0  0  0  0  0  0  0  0  0
    1.7798   -0.2549    0.0000 N   0  0  0  0  0  0  0  0  0  0  0  0
    0.4699    0.4125    0.0000 N   0  0  0  0  0  0  0  0  0  0  0  0
    0.0574   -0.3020    0.0000 C   0  0  0  0  0  0  0  0  0  0  0  0
   -0.7676   -0.3020    0.0000 O   0  0  0  0  0  0  0  0  0  0  0  0
   -1.1801   -1.0164    0.0000 C   0  0  0  0  0  0  0  0  0  0  0  0
    0.4699   -1.0164    0.0000 O   0  0  0  0  0  0  0  0  0  0  0  0
  1  2  2  0  0  0  0
  2  3  1  0  0  0  0
  3  4  1  0  0  0  0
  4  5  1  0  0  0  0
  5  6  1  0  0  0  0
  2  7  1  0  0  0  0
  7  8  2  0  0  0  0
  8  9  1  0  0  0  0
  9 10  2  0  0  0  0
  1 10  1  0  0  0  0
 10 11  1  0  0  0  0
 11 12  1  0  0  0  0
 12 13  2  0  0  0  0
  9 13  1  0  0  0  0
 12 14  1  0  0  0  0
 14 15  1  0  0  0  0
 15 16  1  0  0  0  0
 16 17  1  0  0  0  0
 15 18  2  0  0  0  0
M  END
>  <Name>
Albendazole

>  <CAS>
54965-21-8

>  <Formula>
C12H15N3O2S

>  <MolWt>
265.33 

>  <Bioactivity>
Albendazole(Albenza) is a member of the benzimidazole compounds used as a drug indicated for the treatment of a variety of worm infestations. Albendazole causes degenerative alterations in the tegument and intestinal cells of the worm by binding to the colchicine-sensitive site of tubulin, thus inhibiting its polymerization or assembly into microtubules. The loss of the cytoplasmic microtubules leads to impaired uptake of glucose by the larval and adult stages of the susceptible parasites, and depletes their glycogen stores.

>  <Pathways>
Microbiology & Virology; Cell Cycle/Checkpoint

>  <Target>
Antibiotic;Microtubule Associated inhibitor

>  <Receptor>
Microtubule

>  <Reference>
1. Solana HD, et al. Methods Find Exp Clin Pharmacol. 2002 Jan-Feb;24(1):7-13. 

$$$$
T1153
  Mrv1561503291623562D          

 21 22  0  0  0  0            999 V2000
    2.8579   -1.6500    0.0000 C   0  0  0  0  0  0  0  0  0  0  0  0
    2.8579   -2.4750    0.0000 C   0  0  0  0  0  0  0  0  0  0  0  0
    2.1434   -2.8875    0.0000 C   0  0  0  0  0  0  0  0  0  0  0  0
    1.4289   -2.4750    0.0000 C   0  0  0  0  0  0  0  0  0  0  0  0
    0.7145   -2.8875    0.0000 O   0  0  0  0  0  0  0  0  0  0  0  0
   -0.0000   -2.4750    0.0000 C   0  0  0  0  0  0  0  0  0  0  0  0
    1.4289   -1.6500    0.0000 C   0  0  0  0  0  0  0  0  0  0  0  0
    2.1434   -1.2375    0.0000 C   0  0  0  0  0  0  0  0  0  0  0  0
    2.1434   -0.4125    0.0000 O   0  0  0  0  0  0  0  0  0  0  0  0
    2.8579   -0.0000    0.0000 C   0  0  0  0  0  0  0  0  0  0  0  0
    0.7145   -1.2375    0.0000 O   0  0  0  0  0  0  0  0  0  0  0  0
    0.7145   -0.4125    0.0000 C   0  0  0  0  0  0  0  0  0  0  0  0
    3.5724   -2.8875    0.0000 C   0  0  0  0  0  0  0  0  0  0  0  0
    3.5724   -3.7125    0.0000 C   0  0  0  0  0  0  0  0  0  0  0  0
    4.2868   -4.1250    0.0000 C   0  0  0  0  0  0  0  0  0  0  0  0
    4.2868   -4.9500    0.0000 N   0  0  0  0  0  0  0  0  0  0  0  0
    3.5724   -5.3625    0.0000 C   0  0  0  0  0  0  0  0  0  0  0  0
    3.5724   -6.1875    0.0000 N   0  0  0  0  0  0  0  0  0  0  0  0
    2.8579   -4.9500    0.0000 N   0  0  0  0  0  0  0  0  0  0  0  0
    2.8579   -4.1250    0.0000 C   0  0  0  0  0  0  0  0  0  0  0  0
    5.0013   -3.7125    0.0000 N   0  0  0  0  0  0  0  0  0  0  0  0
  1  2  2  0  0  0  0
  2  3  1  0  0  0  0
  3  4  2  0  0  0  0
  4  5  1  0  0  0  0
  5  6  1  0  0  0  0
  4  7  1  0  0  0  0
  7  8  2  0  0  0  0
  1  8  1  0  0  0  0
  8  9  1  0  0  0  0
  9 10  1  0  0  0  0
  7 11  1  0  0  0  0
 11 12  1  0  0  0  0
  2 13  1  0  0  0  0
 13 14  1  0  0  0  0
 14 15  2  0  0  0  0
 15 16  1  0  0  0  0
 16 17  2  0  0  0  0
 17 18  1  0  0  0  0
 17 19  1  0  0  0  0
 19 20  2  0  0  0  0
 14 20  1  0  0  0  0
 15 21  1  0  0  0  0
M  END
>  <Name>
Trimethoprim

>  <CAS>
738-70-5

>  <Formula>
C14H18N4O3

>  <MolWt>
290.32 

>  <Bioactivity>
Trimethoprim is a Dihydrofolate Reductase Inhibitor Antibacterial.

>  <Pathways>
Microbiology & Virology

>  <Target>
Antibiotic

>  <Receptor>
DHFR;Thymidylate synthase

>  <Reference>
1. Flockhart DA. Accessed May 28, 2010.

$$$$
119793-66-7
  Mrv1561503291623562D          

 16 14  0  0  1  0            999 V2000
    0.0476   -0.0825    0.0000 C   0  0  1  0  0  0  0  0  0  0  0  0
    0.0476    0.7425    0.0000 O   0  0  0  0  0  0  0  0  0  0  0  0
   -0.6668    1.1550    0.0000 C   0  0  0  0  0  0  0  0  0  0  0  0
   -1.3813    0.7425    0.0000 O   0  0  0  0  0  0  0  0  0  0  0  0
   -0.6668    1.9800    0.0000 C   0  0  0  0  0  0  0  0  0  0  0  0
    0.0476    2.3925    0.0000 C   0  0  0  0  0  0  0  0  0  0  0  0
   -0.6668   -0.4950    0.0000 C   0  0  0  0  0  0  0  0  0  0  0  0
   -0.6668   -1.3200    0.0000 N   0  3  0  0  0  0  0  0  0  0  0  0
   -0.6668   -2.1450    0.0000 C   0  0  0  0  0  0  0  0  0  0  0  0
   -1.4918   -1.3200    0.0000 C   0  0  0  0  0  0  0  0  0  0  0  0
    0.1582   -1.3200    0.0000 C   0  0  0  0  0  0  0  0  0  0  0  0
    0.7621   -0.4950    0.0000 C   0  0  0  0  0  0  0  0  0  0  0  0
    1.4766   -0.0825    0.0000 C   0  0  0  0  0  0  0  0  0  0  0  0
    1.4766    0.7425    0.0000 O   0  0  0  0  0  0  0  0  0  0  0  0
    2.1910   -0.4950    0.0000 O   0  0  0  0  0  0  0  0  0  0  0  0
    4.5482    0.0000    0.0000 Cl  0  5  0  0  0  0  0  0  0  0  0  0
  1  2  1  6  0  0  0
  2  3  1  0  0  0  0
  3  4  2  0  0  0  0
  3  5  1  0  0  0  0
  5  6  1  0  0  0  0
  1  7  1  0  0  0  0
  7  8  1  0  0  0  0
  8  9  1  0  0  0  0
  8 10  1  0  0  0  0
  8 11  1  0  0  0  0
  1 12  1  0  0  0  0
 12 13  1  0  0  0  0
 13 14  1  0  0  0  0
 13 15  2  0  0  0  0
M  CHG  2   8   1  16  -1
M  END
>  <Name>
Propionyl-L-carnitine HCl

>  <CAS>
119793-66-7

>  <Formula>
C10H20ClNO4

>  <MolWt>
211.22 

>  <Bioactivity>
Carbinoxamine is a first generation antihistamine that competes with free histamine for binding at HA-receptor sites. This antagonizes the effects of histamine on HA-receptors, leading to a reduction of the negative symptoms brought on by histamine HA-receptor binding. The product label for carbinoxamine as an over the counter cough and cold medicine is being modified to state “do not use” in children under 4 years of age in order to prevent and reduce misuse, as many unapproved carbinoxamine-containing preparations contained inappropriate labeling, which promoted unapproved uses (including management of congestion, cough, the common cold, and the use in children under 2 years of age), which can potentially cause serious health risks.

>  <Pathways>
Neuroscience

>  <Target>
Histamine Receptor antagonist

>  <Receptor>
Histamine H1 receptor

>  <Reference>
1. Oishi R, et al. Naunyn Schmiedebergs Arch Pharmacol. 1994 Feb;349(2):140-4. 

$$$$
136-40-3
  Mrv1561503291623562D          

 18 17  0  0  0  0            999 V2000
    0.4125    0.0000    0.0000 H   0  3  0  0  0  0  0  0  0  0  0  0
    4.9131    1.1602    0.0000 C   0  0  0  0  0  0  0  0  0  0  0  0
    4.1986    0.7477    0.0000 C   0  0  0  0  0  0  0  0  0  0  0  0
    4.1986   -0.0773    0.0000 N   0  0  0  0  0  0  0  0  0  0  0  0
    4.9131   -0.4898    0.0000 N   0  0  0  0  0  0  0  0  0  0  0  0
    4.9131   -1.3148    0.0000 C   0  0  0  0  0  0  0  0  0  0  0  0
    5.6275   -1.7273    0.0000 C   0  0  0  0  0  0  0  0  0  0  0  0
    5.6275   -2.5523    0.0000 C   0  0  0  0  0  0  0  0  0  0  0  0
    4.9131   -2.9648    0.0000 C   0  0  0  0  0  0  0  0  0  0  0  0
    4.1986   -2.5523    0.0000 C   0  0  0  0  0  0  0  0  0  0  0  0
    4.1986   -1.7273    0.0000 C   0  0  0  0  0  0  0  0  0  0  0  0
    3.4841    1.1602    0.0000 C   0  0  0  0  0  0  0  0  0  0  0  0
    3.4841    1.9852    0.0000 N   0  0  0  0  0  0  0  0  0  0  0  0
    4.1986    2.3977    0.0000 C   0  0  0  0  0  0  0  0  0  0  0  0
    4.9131    1.9852    0.0000 C   0  0  0  0  0  0  0  0  0  0  0  0
    4.1986    3.2227    0.0000 N   0  0  0  0  0  0  0  0  0  0  0  0
    2.7696    0.7477    0.0000 N   0  0  0  0  0  0  0  0  0  0  0  0
   -0.4125    0.0000    0.0000 Cl  0  5  0  0  0  0  0  0  0  0  0  0
  2  3  2  0  0  0  0
  3  4  1  0  0  0  0
  4  5  2  3  0  0  0
  5  6  1  0  0  0  0
  6  7  2  0  0  0  0
  7  8  1  0  0  0  0
  8  9  2  0  0  0  0
  9 10  1  0  0  0  0
 10 11  2  0  0  0  0
  6 11  1  0  0  0  0
  3 12  1  0  0  0  0
 12 13  2  0  0  0  0
 13 14  1  0  0  0  0
 14 15  2  0  0  0  0
  2 15  1  0  0  0  0
 14 16  1  0  0  0  0
 12 17  1  0  0  0  0
M  CHG  2   1   1  18  -1
M  END
>  <Name>
Phenazopyridine HCl

>  <CAS>
136-40-3

>  <Formula>
C11H11ClN5

>  <MolWt>
249.70 

>  <Bioactivity>
Phenazopyridine HCl is a local analgesic that has been used in urinary tract disorders.

>  <Pathways>
Membrane Transporter/Ion Channel

>  <Target>
Sodium Channel inhibitor

>  <Receptor>
Sodium Channel

>  <Reference>
1. Suter DM, et al. J Cell Mol Med, 2009, Sep; 13(9B), 3517-27. 

$$$$
532-03-6
  Mrv1561503291623562D          

 17 17  0  0  0  0            999 V2000
   -3.5724    0.4125    0.0000 C   0  0  0  0  0  0  0  0  0  0  0  0
   -2.8579    0.0000    0.0000 C   0  0  0  0  0  0  0  0  0  0  0  0
   -2.8579   -0.8250    0.0000 C   0  0  0  0  0  0  0  0  0  0  0  0
   -3.5724   -1.2375    0.0000 C   0  0  0  0  0  0  0  0  0  0  0  0
   -4.2868   -0.8250    0.0000 C   0  0  0  0  0  0  0  0  0  0  0  0
   -4.2868    0.0000    0.0000 C   0  0  0  0  0  0  0  0  0  0  0  0
   -2.1434   -1.2375    0.0000 O   0  0  0  0  0  0  0  0  0  0  0  0
   -2.1434   -2.0625    0.0000 C   0  0  0  0  0  0  0  0  0  0  0  0
   -2.1434    0.4125    0.0000 O   0  0  0  0  0  0  0  0  0  0  0  0
   -1.4289    0.0000    0.0000 C   0  0  0  0  0  0  0  0  0  0  0  0
   -0.7145    0.4125    0.0000 C   0  0  0  0  0  0  0  0  0  0  0  0
    0.0000    0.0000    0.0000 C   0  0  0  0  0  0  0  0  0  0  0  0
    0.7145    0.4125    0.0000 O   0  0  0  0  0  0  0  0  0  0  0  0
    1.4289    0.0000    0.0000 C   0  0  0  0  0  0  0  0  0  0  0  0
    2.1434    0.4125    0.0000 N   0  0  0  0  0  0  0  0  0  0  0  0
    1.4289   -0.8250    0.0000 O   0  0  0  0  0  0  0  0  0  0  0  0
   -0.7145    1.2375    0.0000 O   0  0  0  0  0  0  0  0  0  0  0  0
  1  2  2  0  0  0  0
  2  3  1  0  0  0  0
  3  4  2  0  0  0  0
  4  5  1  0  0  0  0
  5  6  2  0  0  0  0
  1  6  1  0  0  0  0
  3  7  1  0  0  0  0
  7  8  1  0  0  0  0
  2  9  1  0  0  0  0
  9 10  1  0  0  0  0
 10 11  1  0  0  0  0
 11 12  1  0  0  0  0
 12 13  1  0  0  0  0
 13 14  1  0  0  0  0
 14 15  1  0  0  0  0
 14 16  2  0  0  0  0
 11 17  1  0  0  0  0
M  END
>  <Name>
Methocarbamol

>  <CAS>
532-03-6

>  <Formula>
C11H15NO

>  <MolWt>
241.24 

>  <Bioactivity>
A centrally acting muscle relaxant whose mode of action has not been established. It is used as an adjunct in the symptomatic treatment of musculoskeletal conditions associated with painful muscle spasm. (From Martindale, The Extra Pharmacopoeia, 30th ed, p1206) 

>  <Pathways>
Metabolism

>  <Target>
Carbonic anhydrase inhibitor

>  <Receptor>
CA1

>  <Reference>
1. Parr JS, Khalifah RG. J Biol Chem. 1992 Dec 15; 267(35):25044-50.

$$$$
54-95-5
  Mrv1561503291623562D          

 10 11  0  0  0  0            999 V2000
    0.6450   -0.5144    0.0000 C   0  0  0  0  0  0  0  0  0  0  0  0
    0.0000    0.0000    0.0000 C   0  0  0  0  0  0  0  0  0  0  0  0
   -0.7846   -0.2549    0.0000 N   0  0  0  0  0  0  0  0  0  0  0  0
   -1.2695    0.4125    0.0000 N   0  0  0  0  0  0  0  0  0  0  0  0
   -0.7846    1.0799    0.0000 N   0  0  0  0  0  0  0  0  0  0  0  0
   -0.0000    0.8250    0.0000 N   0  0  0  0  0  0  0  0  0  0  0  0
    0.6450    1.3394    0.0000 C   0  0  0  0  0  0  0  0  0  0  0  0
    1.4493    1.1558    0.0000 C   0  0  0  0  0  0  0  0  0  0  0  0
    1.8073    0.4125    0.0000 C   0  0  0  0  0  0  0  0  0  0  0  0
    1.4493   -0.3308    0.0000 C   0  0  0  0  0  0  0  0  0  0  0  0
  1  2  1  0  0  0  0
  2  3  2  0  0  0  0
  3  4  1  0  0  0  0
  4  5  2  0  0  0  0
  5  6  1  0  0  0  0
  2  6  1  0  0  0  0
  6  7  1  0  0  0  0
  7  8  1  0  0  0  0
  8  9  1  0  0  0  0
  9 10  1  0  0  0  0
  1 10  1  0  0  0  0
M  END
>  <Name>
Pentetrazol

>  <CAS>
54-95-5

>  <Formula>
C6H10N4

>  <MolWt>
138.17 

>  <Bioactivity>
A pharmaceutical agent that displays activity as a central nervous system and respiratory stimulant. It is considered a non-competitive GAMMA-AMINOBUTYRIC ACID antagonist. Pentylenetetrazole has been used experimentally to study seizure phenomenon and to identify pharmaceuticals that may control seizure susceptibility.

>  <Pathways>
Neuroscience

>  <Target>
GABAR antagonist

>  <Receptor>
GABAR

>  <Reference>
1. Squires RF, et al. Life Sci. 1984, 35 (14): 1439–44.

$$$$
T1434
  Mrv1561503291623562D          

 52 54  0  0  1  0            999 V2000
   -2.1434    2.0625    0.0000 C   0  0  1  0  0  0  0  0  0  0  0  0
   -1.4289    1.6500    0.0000 O   0  0  0  0  0  0  0  0  0  0  0  0
   -1.4289    0.8250    0.0000 C   0  0  2  0  0  0  0  0  0  0  0  0
   -2.1434    0.4125    0.0000 O   0  0  0  0  0  0  0  0  0  0  0  0
   -2.1434   -0.4125    0.0000 C   0  0  1  0  0  0  0  0  0  0  0  0
   -1.4289   -0.8250    0.0000 C   0  0  0  0  0  0  0  0  0  0  0  0
   -0.7145   -0.4125    0.0000 C   0  0  2  0  0  0  0  0  0  0  0  0
   -0.0000   -0.8250    0.0000 N   0  0  0  0  0  0  0  0  0  0  0  0
   -0.0000   -1.6500    0.0000 C   0  0  0  0  0  0  0  0  0  0  0  0
    0.7145   -0.4125    0.0000 C   0  0  0  0  0  0  0  0  0  0  0  0
   -0.7145    0.4125    0.0000 C   0  0  1  0  0  0  0  0  0  0  0  0
   -0.0000    0.8250    0.0000 O   0  0  0  0  0  0  0  0  0  0  0  0
   -2.8579   -0.8250    0.0000 C   0  0  0  0  0  0  0  0  0  0  0  0
   -2.1434    1.2375    0.0000 C   0  0  2  0  0  0  0  0  0  0  0  0
   -1.8612    0.4623    0.0000 O   0  0  0  0  0  0  0  0  0  0  0  0
   -2.3915   -0.1697    0.0000 C   0  0  0  0  0  0  0  0  0  0  0  0
   -2.8579    0.8250    0.0000 C   0  0  0  0  0  0  0  0  0  0  0  0
   -3.5724    1.2375    0.0000 C   0  0  2  0  0  0  0  0  0  0  0  0
   -3.5724    2.0625    0.0000 C   0  0  0  0  0  0  0  0  0  0  0  0
   -2.8579    2.4750    0.0000 O   0  0  0  0  0  0  0  0  0  0  0  0
   -4.2868    2.4750    0.0000 C   0  0  1  0  0  0  0  0  0  0  0  0
   -4.2868    3.3000    0.0000 C   0  0  1  0  0  0  0  0  0  0  0  0
   -5.0013    3.7125    0.0000 O   0  0  0  0  0  0  0  0  0  0  0  0
   -3.5724    3.7125    0.0000 C   0  0  2  0  0  0  0  0  0  0  0  0
   -4.3848    3.8558    0.0000 O   0  0  0  0  0  0  0  0  0  0  0  0
   -3.5724    4.5375    0.0000 C   0  0  2  0  0  0  0  0  0  0  0  0
   -2.8579    4.9500    0.0000 O   0  0  0  0  0  0  0  0  0  0  0  0
   -2.1434    4.5375    0.0000 C   0  0  0  0  0  0  0  0  0  0  0  0
   -1.4289    4.9500    0.0000 O   0  0  0  0  0  0  0  0  0  0  0  0
   -2.1434    3.7125    0.0000 C   0  0  1  0  0  0  0  0  0  0  0  0
   -1.4289    3.3000    0.0000 C   0  0  1  0  0  0  0  0  0  0  0  0
   -0.7145    3.7125    0.0000 O   0  0  0  0  0  0  0  0  0  0  0  0
   -0.0000    3.3000    0.0000 C   0  0  2  0  0  0  0  0  0  0  0  0
    0.7145    3.7125    0.0000 O   0  0  0  0  0  0  0  0  0  0  0  0
    1.4289    3.3000    0.0000 C   0  0  2  0  0  0  0  0  0  0  0  0
    1.4289    2.4750    0.0000 C   0  0  2  0  0  0  0  0  0  0  0  0
    2.1434    2.0625    0.0000 O   0  0  0  0  0  0  0  0  0  0  0  0
    0.7145    2.0625    0.0000 C   0  0  2  0  0  0  0  0  0  0  0  0
    1.2448    1.4305    0.0000 O   0  0  0  0  0  0  0  0  0  0  0  0
    0.9626    0.6553    0.0000 C   0  0  0  0  0  0  0  0  0  0  0  0
   -0.0000    2.4750    0.0000 C   0  0  0  0  0  0  0  0  0  0  0  0
    0.1842    1.4305    0.0000 C   0  0  0  0  0  0  0  0  0  0  0  0
    2.1434    3.7125    0.0000 C   0  0  0  0  0  0  0  0  0  0  0  0
   -1.4289    2.4750    0.0000 C   0  0  2  0  0  0  0  0  0  0  0  0
   -0.7145    2.0625    0.0000 C   0  0  0  0  0  0  0  0  0  0  0  0
   -2.8579    3.3000    0.0000 C   0  0  0  0  0  0  0  0  0  0  0  0
   -4.2868    4.9500    0.0000 C   0  0  0  0  0  0  0  0  0  0  0  0
   -4.2868    5.7750    0.0000 C   0  0  0  0  0  0  0  0  0  0  0  0
   -4.1027    4.3445    0.0000 C   0  0  0  0  0  0  0  0  0  0  0  0
   -5.0013    2.0625    0.0000 C   0  0  0  0  0  0  0  0  0  0  0  0
   -4.2868    0.8250    0.0000 C   0  0  0  0  0  0  0  0  0  0  0  0
   -1.3309    1.3808    0.0000 C   0  0  0  0  0  0  0  0  0  0  0  0
  1  2  1  6  0  0  0
  3  2  1  1  0  0  0
  3  4  1  0  0  0  0
  4  5  1  0  0  0  0
  5  6  1  0  0  0  0
  6  7  1  0  0  0  0
  7  8  1  1  0  0  0
  8  9  1  0  0  0  0
  8 10  1  0  0  0  0
  7 11  1  0  0  0  0
  3 11  1  0  0  0  0
 11 12  1  6  0  0  0
  5 13  1  1  0  0  0
  1 14  1  0  0  0  0
 14 15  1  6  0  0  0
 15 16  1  0  0  0  0
 14 17  1  0  0  0  0
 17 18  1  0  0  0  0
 18 19  1  0  0  0  0
 19 20  2  0  0  0  0
 19 21  1  0  0  0  0
 21 22  1  0  0  0  0
 22 23  1  1  0  0  0
 22 24  1  0  0  0  0
 24 25  1  6  0  0  0
 24 26  1  0  0  0  0
 26 27  1  0  0  0  0
 27 28  1  0  0  0  0
 28 29  2  0  0  0  0
 28 30  1  0  0  0  0
 30 31  1  0  0  0  0
 31 32  1  1  0  0  0
 33 32  1  6  0  0  0
 33 34  1  0  0  0  0
 34 35  1  0  0  0  0
 35 36  1  0  0  0  0
 36 37  1  6  0  0  0
 36 38  1  0  0  0  0
 38 39  1  6  0  0  0
 39 40  1  0  0  0  0
 38 41  1  0  0  0  0
 33 41  1  0  0  0  0
 38 42  1  1  0  0  0
 35 43  1  1  0  0  0
 31 44  1  0  0  0  0
  1 44  1  0  0  0  0
 44 45  1  6  0  0  0
 30 46  1  1  0  0  0
 26 47  1  1  0  0  0
 47 48  1  0  0  0  0
 24 49  1  1  0  0  0
 21 50  1  6  0  0  0
 18 51  1  1  0  0  0
 14 52  1  1  0  0  0
M  END
>  <Name>
Clarithromycin

>  <CAS>
81103-11-9

>  <Formula>
C38H69NO13

>  <MolWt>
747.95 

>  <Bioactivity>
A semisynthetic macrolide antibiotic derived from ERYTHROMYCIN that is active against a variety of microorganisms. It can inhibit protein synthesis in bacteria by reversibly binding to the 50S ribosomal subunits. This inhibits the translocation of aminoacyl transfer-RNA and prevents peptide chain elongation.


>  <Pathways>
Microbiology & Virology

>  <Target>
Antibacterial

>  <Receptor>
50S ribosomal protein;MRP1

>  <Reference>
1. Flockhart DA. . Indiana University School of Medicine (2007). Accessed May 28, 2010.

$$$$
58-93-5
  Mrv1561503291623562D          

 17 18  0  0  0  0            999 V2000
   -0.0000    0.0000    0.0000 C   0  0  0  0  0  0  0  0  0  0  0  0
   -0.7145   -0.4125    0.0000 C   0  0  0  0  0  0  0  0  0  0  0  0
   -1.4289    0.0000    0.0000 S   0  0  0  0  0  0  0  0  0  0  0  0
   -2.1434    0.4125    0.0000 N   0  0  0  0  0  0  0  0  0  0  0  0
   -1.8414   -0.7145    0.0000 O   0  0  0  0  0  0  0  0  0  0  0  0
   -1.0164    0.7145    0.0000 O   0  0  0  0  0  0  0  0  0  0  0  0
   -0.7145   -1.2375    0.0000 C   0  0  0  0  0  0  0  0  0  0  0  0
   -0.0000   -1.6500    0.0000 C   0  0  0  0  0  0  0  0  0  0  0  0
    0.7145   -1.2375    0.0000 C   0  0  0  0  0  0  0  0  0  0  0  0
    0.7145   -0.4125    0.0000 C   0  0  0  0  0  0  0  0  0  0  0  0
    1.4289    0.0000    0.0000 S   0  0  0  0  0  0  0  0  0  0  0  0
    2.1434   -0.4125    0.0000 N   0  0  0  0  0  0  0  0  0  0  0  0
    2.1434   -1.2375    0.0000 C   0  0  0  0  0  0  0  0  0  0  0  0
    1.4289   -1.6500    0.0000 N   0  0  0  0  0  0  0  0  0  0  0  0
    1.0416    0.7284    0.0000 O   0  0  0  0  0  0  0  0  0  0  0  0
    1.8163    0.7284    0.0000 O   0  0  0  0  0  0  0  0  0  0  0  0
   -1.4289   -1.6500    0.0000 Cl  0  0  0  0  0  0  0  0  0  0  0  0
  1  2  2  0  0  0  0
  2  3  1  0  0  0  0
  3  4  1  0  0  0  0
  3  5  2  0  0  0  0
  3  6  2  0  0  0  0
  2  7  1  0  0  0  0
  7  8  2  0  0  0  0
  8  9  1  0  0  0  0
  9 10  2  0  0  0  0
  1 10  1  0  0  0  0
 10 11  1  0  0  0  0
 11 12  1  0  0  0  0
 12 13  1  0  0  0  0
 13 14  1  0  0  0  0
  9 14  1  0  0  0  0
 11 15  2  0  0  0  0
 11 16  2  0  0  0  0
  7 17  1  0  0  0  0
M  END
>  <Name>
Hydrochlorothiazide

>  <CAS>
58-93-5

>  <Formula>
C7H8ClN3O4S2

>  <MolWt>
297.74 

>  <Bioactivity>
Hydrochlorothiazide is a first line diuretic compound of the thiazide class.

>  <Pathways>
Membrane Transporter/Ion Channel; Metabolism

>  <Target>
Carbonic anhydrase inhibitor;Potassium Channel

>  <Receptor>
CA;Calcium-activated potassium channel

>  <Reference>
1. Ran XW, et al. Sichuan Da Xue Xue Bao Yi Xue Ban. 2005 Jul; 36(4):583-7. 

$$$$
T1454
  Mrv1561503291623562D          

 16 17  0  0  0  0            999 V2000
   -3.4873   -0.1731    0.0000 C   0  0  0  0  0  0  0  0  0  0  0  0
   -4.2942   -0.0016    0.0000 N   0  0  0  0  0  0  0  0  0  0  0  0
   -4.7067   -0.7161    0.0000 C   0  0  0  0  0  0  0  0  0  0  0  0
   -4.1547   -1.3292    0.0000 C   0  0  0  0  0  0  0  0  0  0  0  0
   -3.4010   -0.9936    0.0000 N   0  0  0  0  0  0  0  0  0  0  0  0
   -2.6866   -1.4061    0.0000 C   0  0  0  0  0  0  0  0  0  0  0  0
   -1.9721   -0.9936    0.0000 O   0  0  0  0  0  0  0  0  0  0  0  0
   -1.2576   -1.4061    0.0000 C   0  0  0  0  0  0  0  0  0  0  0  0
   -0.5432   -0.9936    0.0000 C   0  0  0  0  0  0  0  0  0  0  0  0
    0.1713   -1.4061    0.0000 O   0  0  0  0  0  0  0  0  0  0  0  0
   -4.4097   -2.1138    0.0000 N   0  0  0  0  0  0  0  0  0  0  0  0
   -5.2166   -2.2853    0.0000 C   0  0  0  0  0  0  0  0  0  0  0  0
   -5.7687   -1.6722    0.0000 N   0  0  0  0  0  0  0  0  0  0  0  0
   -5.5137   -0.8876    0.0000 C   0  0  0  0  0  0  0  0  0  0  0  0
   -6.0658   -0.2745    0.0000 O   0  0  0  0  0  0  0  0  0  0  0  0
   -5.4716   -3.0699    0.0000 N   0  0  0  0  0  0  0  0  0  0  0  0
  1  2  2  0  0  0  0
  2  3  1  0  0  0  0
  3  4  2  0  0  0  0
  4  5  1  0  0  0  0
  1  5  1  0  0  0  0
  5  6  1  0  0  0  0
  6  7  1  0  0  0  0
  7  8  1  0  0  0  0
  8  9  1  0  0  0  0
  9 10  1  0  0  0  0
  4 11  1  0  0  0  0
 11 12  1  0  0  0  0
 12 13  2  0  0  0  0
 13 14  1  0  0  0  0
  3 14  1  0  0  0  0
 14 15  2  0  0  0  0
 12 16  1  0  0  0  0
M  END
>  <Name>
Aciclovir

>  <CAS>
59277-89-3

>  <Formula>
C8H11N5O3

>  <MolWt>
225.21 

>  <Bioactivity>
Acyclovir is a synthetic nucleoside analogue active against herpesviruses. It is a guanosine analogue antiviral drug. Aciclovir differs from previous nucleoside analogues in that it contains only a partial nucleoside structure: the sugar ring is replaced by an open-chain structure. 

>  <Pathways>
DNA Damage/DNA Repair;Microbiology & Virology

>  <Target>
Antibiotic; DNA/RNA Synthesis inhibitor

>  <Receptor>
DNA synthesis inhibitor

>  <Reference>
1. Suzuki M, et al. Antiviral Res. 2006 Nov; 72(2):157-61. 

$$$$
T1556
  Mrv1561503291623562D          

 14 14  0  0  0  0            999 V2000
    0.9803   -0.1553    0.0000 C   0  0  0  0  0  0  0  0  0  0  0  0
    0.1553   -0.1553    0.0000 C   0  0  0  0  0  0  0  0  0  0  0  0
   -0.0997    0.6294    0.0000 N   0  0  0  0  0  0  0  0  0  0  0  0
    0.5678    1.1143    0.0000 C   0  0  0  0  0  0  0  0  0  0  0  0
    1.2352    0.6294    0.0000 N   0  0  0  0  0  0  0  0  0  0  0  0
    0.5678    1.9393    0.0000 C   0  0  0  0  0  0  0  0  0  0  0  0
   -0.8843    0.8843    0.0000 C   0  0  0  0  0  0  0  0  0  0  0  0
   -1.0558    1.6913    0.0000 C   0  0  0  0  0  0  0  0  0  0  0  0
   -1.8405    1.9462    0.0000 C   0  0  0  0  0  0  0  0  0  0  0  0
   -2.0120    2.7532    0.0000 Cl  0  0  0  0  0  0  0  0  0  0  0  0
   -0.4427    2.2433    0.0000 O   0  0  0  0  0  0  0  0  0  0  0  0
   -0.3297   -0.8227    0.0000 N   0  3  0  0  0  0  0  0  0  0  0  0
    0.0059   -1.5764    0.0000 O   0  0  0  0  0  0  0  0  0  0  0  0
   -1.1501   -0.7365    0.0000 O   0  5  0  0  0  0  0  0  0  0  0  0
  1  2  2  0  0  0  0
  2  3  1  0  0  0  0
  3  4  1  0  0  0  0
  4  5  2  0  0  0  0
  1  5  1  0  0  0  0
  4  6  1  0  0  0  0
  3  7  1  0  0  0  0
  7  8  1  0  0  0  0
  8  9  1  0  0  0  0
  9 10  1  0  0  0  0
  8 11  1  0  0  0  0
  2 12  1  0  0  0  0
 12 13  2  0  0  0  0
 12 14  1  0  0  0  0
M  CHG  2  12   1  14  -1
M  END
>  <Name>
Ornidazole

>  <CAS>
16773-42-5

>  <Formula>
C7H10ClN3O3

>  <MolWt>
219.63 

>  <Bioactivity>
A nitroimidazole antiprotozoal agent used in ameba and trichomonas infections. It is partially plasma-bound and also has radiation-sensitizing action. 

>  <Pathways>
Microbiology & Virology

>  <Target>
Antibiotic

>  <Receptor>
Others

>  <Reference>
1. Rutgeerts P et al. Gastroenterology, 2005, 128(4):856-861.

$$$$
T1581
  Mrv1561503291623562D          

  8  8  0  0  0  0            999 V2000
    0.0000    0.8250    0.0000 C   0  0  0  0  0  0  0  0  0  0  0  0
    0.7145    1.2375    0.0000 C   0  0  0  0  0  0  0  0  0  0  0  0
    1.4289    0.8250    0.0000 C   0  0  0  0  0  0  0  0  0  0  0  0
    1.4289   -0.0000    0.0000 N   0  0  0  0  0  0  0  0  0  0  0  0
    0.7145   -0.4125    0.0000 C   0  0  0  0  0  0  0  0  0  0  0  0
   -0.0000    0.0000    0.0000 C   0  0  0  0  0  0  0  0  0  0  0  0
    0.7145    2.0625    0.0000 C   0  0  0  0  0  0  0  0  0  0  0  0
    0.0000    2.4750    0.0000 N   0  0  0  0  0  0  0  0  0  0  0  0
  1  2  2  0  0  0  0
  2  3  1  0  0  0  0
  3  4  2  0  0  0  0
  4  5  1  0  0  0  0
  5  6  2  0  0  0  0
  1  6  1  0  0  0  0
  2  7  1  0  0  0  0
  7  8  1  0  0  0  0
M  END
>  <Name>
Picolamine

>  <CAS>
3731-52-0

>  <Formula>
C6H8N2

>  <MolWt>
108.14 

>  <Bioactivity>
it acts as potential inhibitors of DPP-4

>  <Pathways>
Proteases/Proteasome

>  <Target>
DPP-4 Inhibitor

>  <Receptor>
DPP-4

>  <Reference>
1. Reddy PR, Shilpa A. Chem Biodivers. 2012 Oct;9(10):2262-81. 

$$$$
T1646
  Mrv1561503291623562D          

 23 24  0  0  0  0            999 V2000
   -1.9215   -5.3598    0.0000 C   0  0  0  0  0  0  0  0  0  0  0  0
   -1.4238   -6.0178    0.0000 N   0  0  0  0  0  0  0  0  0  0  0  0
   -0.6442   -5.7477    0.0000 C   0  0  0  0  0  0  0  0  0  0  0  0
   -0.6602   -4.9229    0.0000 C   0  0  0  0  0  0  0  0  0  0  0  0
   -1.4496   -4.6831    0.0000 N   0  0  0  0  0  0  0  0  0  0  0  0
   -1.7196   -3.9036    0.0000 C   0  0  0  0  0  0  0  0  0  0  0  0
   -2.5298   -3.7477    0.0000 C   0  0  0  0  0  0  0  0  0  0  0  0
   -2.7998   -2.9681    0.0000 C   0  0  0  0  0  0  0  0  0  0  0  0
   -3.6099   -2.8122    0.0000 C   0  0  0  0  0  0  0  0  0  0  0  0
   -3.8800   -2.0326    0.0000 O   0  0  0  0  0  0  0  0  0  0  0  0
   -4.6901   -1.8767    0.0000 C   0  0  0  0  0  0  0  0  0  0  0  0
   -4.9602   -1.0972    0.0000 C   0  0  0  0  0  0  0  0  0  0  0  0
   -5.2302   -2.5004    0.0000 O   0  0  0  0  0  0  0  0  0  0  0  0
   -2.2597   -2.3445    0.0000 C   0  0  0  0  0  0  0  0  0  0  0  0
   -1.4496   -2.5004    0.0000 O   0  0  0  0  0  0  0  0  0  0  0  0
   -0.9095   -1.8767    0.0000 C   0  0  0  0  0  0  0  0  0  0  0  0
   -1.1795   -1.0972    0.0000 C   0  0  0  0  0  0  0  0  0  0  0  0
   -0.0993   -2.0326    0.0000 O   0  0  0  0  0  0  0  0  0  0  0  0
    0.0462   -4.4966    0.0000 N   0  0  0  0  0  0  0  0  0  0  0  0
    0.7685   -4.8953    0.0000 C   0  0  0  0  0  0  0  0  0  0  0  0
    1.4749   -4.4690    0.0000 N   0  0  0  0  0  0  0  0  0  0  0  0
    0.7844   -5.7201    0.0000 N   0  0  0  0  0  0  0  0  0  0  0  0
    0.0781   -6.1463    0.0000 C   0  0  0  0  0  0  0  0  0  0  0  0
  1  2  2  0  0  0  0
  2  3  1  0  0  0  0
  3  4  2  0  0  0  0
  4  5  1  0  0  0  0
  1  5  1  0  0  0  0
  5  6  1  0  0  0  0
  6  7  1  0  0  0  0
  7  8  1  0  0  0  0
  8  9  1  0  0  0  0
  9 10  1  0  0  0  0
 10 11  1  0  0  0  0
 11 12  1  0  0  0  0
 11 13  2  0  0  0  0
  8 14  1  0  0  0  0
 14 15  1  0  0  0  0
 15 16  1  0  0  0  0
 16 17  1  0  0  0  0
 16 18  2  0  0  0  0
  4 19  1  0  0  0  0
 19 20  2  0  0  0  0
 20 21  1  0  0  0  0
 20 22  1  0  0  0  0
 22 23  2  0  0  0  0
  3 23  1  0  0  0  0
M  END
>  <Name>
Famciclovir

>  <CAS>
104227-87-4

>  <Formula>
C14H19N5O4

>  <MolWt>
321.33 

>  <Bioactivity>
Famciclovir is a guanine analogue antiviral drug used for the treatment of various herpes virus infections, most commonly for herpes zoster (shingles). It is a prodrug form of penciclovir with improved oral bioavailability. Famciclovir is marketed under the trade name Famvir (Novartis).


>  <Pathways>
DNA Damage/DNA Repair;Microbiology & Virology

>  <Target>
Antiviral

>  <Receptor>
HSV;DNA polymerase

>  <Reference>
1. Schmid-Wendtner MH, Korting HC. Skin Pharmacol Physiol. 2004 Sep-Oct;17(5):214-8.

$$$$
T0949
  Mrv1561503291623562D          

 11 11  0  0  0  0            999 V2000
    0.7145    2.0625    0.0000 C   0  0  0  0  0  0  0  0  0  0  0  0
    0.7145    1.2375    0.0000 C   0  0  0  0  0  0  0  0  0  0  0  0
    1.4289    0.8250    0.0000 C   0  0  0  0  0  0  0  0  0  0  0  0
    1.4289    0.0000    0.0000 C   0  0  0  0  0  0  0  0  0  0  0  0
    0.7145   -0.4125    0.0000 C   0  0  0  0  0  0  0  0  0  0  0  0
    0.0000   -0.0000    0.0000 C   0  0  0  0  0  0  0  0  0  0  0  0
    0.0000    0.8250    0.0000 C   0  0  0  0  0  0  0  0  0  0  0  0
    0.7145   -1.2375    0.0000 C   0  0  0  0  0  0  0  0  0  0  0  0
   -0.0000   -1.6500    0.0000 O   0  0  0  0  0  0  0  0  0  0  0  0
    1.4289   -1.6500    0.0000 O   0  0  0  0  0  0  0  0  0  0  0  0
   -0.0000    2.4750    0.0000 N   0  0  0  0  0  0  0  0  0  0  0  0
  1  2  1  0  0  0  0
  2  3  1  0  0  0  0
  3  4  1  0  0  0  0
  4  5  1  0  0  0  0
  5  6  1  0  0  0  0
  6  7  1  0  0  0  0
  2  7  1  0  0  0  0
  5  8  1  0  0  0  0
  8  9  1  0  0  0  0
  8 10  2  0  0  0  0
  1 11  1  0  0  0  0
M  END
>  <Name>
Amstat

>  <CAS>
1197-18-8

>  <Formula>
C8H15NO2

>  <MolWt>
157.21 

>  <Bioactivity>
Tranexamic acid is an Antifibrinolytic Agent. The physiologic effect of tranexamic acid is by means of Decreased Fibrinolysis.

>  <Pathways>
Angiogenesis

>  <Target>
Plasminogen inhibitor

>  <Receptor>
Plasminogen

>  <Reference>
1. Dunn CJ, Goa KL. Drugs. 1999 Jun, 57(6):1005-32. 


$$$$
T1645
  Mrv1561503291623562D          

 30 32  0  0  1  0            999 V2000
    1.6540   -0.1086    0.0000 C   0  0  2  0  0  0  0  0  0  0  0  0
    1.1820   -0.7853    0.0000 N   0  0  0  0  0  0  0  0  0  0  0  0
    0.3926   -0.5456    0.0000 C   0  0  1  0  0  0  0  0  0  0  0  0
    0.3767    0.2793    0.0000 C   0  0  0  0  0  0  0  0  0  0  0  0
    1.1562    0.5493    0.0000 C   0  0  2  0  0  0  0  0  0  0  0  0
    1.6282    1.2260    0.0000 C   0  0  0  0  0  0  0  0  0  0  0  0
    2.4176    0.9863    0.0000 C   0  0  0  0  0  0  0  0  0  0  0  0
    2.4335    0.1614    0.0000 C   0  0  0  0  0  0  0  0  0  0  0  0
   -0.2653   -1.0433    0.0000 C   0  0  0  0  0  0  0  0  0  0  0  0
   -1.0253   -0.7224    0.0000 O   0  0  0  0  0  0  0  0  0  0  0  0
   -0.1633   -1.8620    0.0000 O   0  0  0  0  0  0  0  0  0  0  0  0
    1.4521   -1.5649    0.0000 C   0  0  0  0  0  0  0  0  0  0  0  0
    2.2622   -1.7208    0.0000 C   0  0  1  0  0  0  0  0  0  0  0  0
    2.5322   -2.5003    0.0000 N   0  0  0  0  0  0  0  0  0  0  0  0
    3.3424   -2.6562    0.0000 C   0  0  1  0  0  0  0  0  0  0  0  0
    3.6124   -3.4358    0.0000 C   0  0  0  0  0  0  0  0  0  0  0  0
    4.4226   -3.5917    0.0000 C   0  0  0  0  0  0  0  0  0  0  0  0
    4.6926   -4.3712    0.0000 C   0  0  0  0  0  0  0  0  0  0  0  0
    5.5027   -4.5272    0.0000 C   0  0  0  0  0  0  0  0  0  0  0  0
    5.7728   -5.3067    0.0000 C   0  0  0  0  0  0  0  0  0  0  0  0
    5.2327   -5.9304    0.0000 C   0  0  0  0  0  0  0  0  0  0  0  0
    4.4226   -5.7744    0.0000 C   0  0  0  0  0  0  0  0  0  0  0  0
    4.1525   -4.9949    0.0000 C   0  0  0  0  0  0  0  0  0  0  0  0
    3.8825   -2.0326    0.0000 C   0  0  0  0  0  0  0  0  0  0  0  0
    4.6926   -2.1885    0.0000 O   0  0  0  0  0  0  0  0  0  0  0  0
    5.2327   -1.5649    0.0000 C   0  0  0  0  0  0  0  0  0  0  0  0
    6.0428   -1.7208    0.0000 C   0  0  0  0  0  0  0  0  0  0  0  0
    3.6124   -1.2530    0.0000 O   0  0  0  0  0  0  0  0  0  0  0  0
    2.8023   -1.0971    0.0000 C   0  0  0  0  0  0  0  0  0  0  0  0
    0.9120   -2.1885    0.0000 O   0  0  0  0  0  0  0  0  0  0  0  0
  1  2  1  6  0  0  0
  2  3  1  0  0  0  0
  3  4  1  0  0  0  0
  4  5  1  0  0  0  0
  1  5  1  0  0  0  0
  5  6  1  6  0  0  0
  6  7  1  0  0  0  0
  7  8  1  0  0  0  0
  1  8  1  0  0  0  0
  3  9  1  6  0  0  0
  9 10  1  0  0  0  0
  9 11  2  0  0  0  0
  2 12  1  0  0  0  0
 12 13  1  0  0  0  0
 13 14  1  0  0  0  0
 15 14  1  6  0  0  0
 15 16  1  0  0  0  0
 16 17  1  0  0  0  0
 17 18  1  0  0  0  0
 18 19  2  0  0  0  0
 19 20  1  0  0  0  0
 20 21  2  0  0  0  0
 21 22  1  0  0  0  0
 22 23  2  0  0  0  0
 18 23  1  0  0  0  0
 15 24  1  0  0  0  0
 24 25  1  0  0  0  0
 25 26  1  0  0  0  0
 26 27  1  0  0  0  0
 24 28  2  0  0  0  0
 13 29  1  6  0  0  0
 12 30  2  0  0  0  0
M  END
>  <Name>
Ramipril

>  <CAS>
87333-19-5

>  <Formula>
C23H32N2O5

>  <MolWt>
416.51 

>  <Bioactivity>
Ramipril is an Angiotensin Converting Enzyme Inhibitor. 

>  <Pathways>
Angiogenesis;Endocrinology/ Hormones

>  <Target>
RAAS inhibitor; ACE inhibitor

>  <Receptor>
ACE;ChE

>  <Reference>
1. Stevens BR, et al. Comp Biochem Physiol C, 1988, 91(2), 493-497.

$$$$
96829-58-2
  Mrv1561503291623562D          

 35 35  0  0  1  0            999 V2000
    5.9422   -1.7177    0.0000 C   0  0  1  0  0  0  0  0  0  0  0  0
    5.9581   -2.5426    0.0000 C   0  0  1  0  0  0  0  0  0  0  0  0
    5.1332   -2.5584    0.0000 C   0  0  0  0  0  0  0  0  0  0  0  0
    4.5612   -3.1529    0.0000 O   0  0  0  0  0  0  0  0  0  0  0  0
    5.1173   -1.7336    0.0000 O   0  0  0  0  0  0  0  0  0  0  0  0
    6.5525   -3.1146    0.0000 C   0  0  0  0  0  0  0  0  0  0  0  0
    6.3544   -3.9154    0.0000 C   0  0  0  0  0  0  0  0  0  0  0  0
    6.9488   -4.4875    0.0000 C   0  0  0  0  0  0  0  0  0  0  0  0
    6.7507   -5.2883    0.0000 C   0  0  0  0  0  0  0  0  0  0  0  0
    7.3452   -5.8604    0.0000 C   0  0  0  0  0  0  0  0  0  0  0  0
    7.1470   -6.6612    0.0000 C   0  0  0  0  0  0  0  0  0  0  0  0
    6.5142   -1.1232    0.0000 C   0  0  0  0  0  0  0  0  0  0  0  0
    6.2854   -0.3306    0.0000 C   0  0  1  0  0  0  0  0  0  0  0  0
    5.4846   -0.1324    0.0000 O   0  0  0  0  0  0  0  0  0  0  0  0
    5.2557    0.6602    0.0000 C   0  0  0  0  0  0  0  0  0  0  0  0
    4.4549    0.8584    0.0000 C   0  0  2  0  0  0  0  0  0  0  0  0
    3.8829    0.2639    0.0000 C   0  0  0  0  0  0  0  0  0  0  0  0
    4.1117   -0.5288    0.0000 C   0  0  0  0  0  0  0  0  0  0  0  0
    4.9125   -0.7269    0.0000 C   0  0  0  0  0  0  0  0  0  0  0  0
    3.5396   -1.1232    0.0000 C   0  0  0  0  0  0  0  0  0  0  0  0
    4.2261    1.6510    0.0000 N   0  0  0  0  0  0  0  0  0  0  0  0
    3.4252    1.8492    0.0000 C   0  0  0  0  0  0  0  0  0  0  0  0
    3.1964    2.6418    0.0000 O   0  0  0  0  0  0  0  0  0  0  0  0
    5.8278    1.2547    0.0000 O   0  0  0  0  0  0  0  0  0  0  0  0
    6.8574    0.2639    0.0000 C   0  0  0  0  0  0  0  0  0  0  0  0
    7.6583    0.0657    0.0000 C   0  0  0  0  0  0  0  0  0  0  0  0
    8.2303    0.6602    0.0000 C   0  0  0  0  0  0  0  0  0  0  0  0
    9.0312    0.4620    0.0000 C   0  0  0  0  0  0  0  0  0  0  0  0
    9.6032    1.0565    0.0000 C   0  0  0  0  0  0  0  0  0  0  0  0
   10.4041    0.8584    0.0000 C   0  0  0  0  0  0  0  0  0  0  0  0
   10.9761    1.4528    0.0000 C   0  0  0  0  0  0  0  0  0  0  0  0
   11.7769    1.2547    0.0000 C   0  0  0  0  0  0  0  0  0  0  0  0
   12.3490    1.8492    0.0000 C   0  0  0  0  0  0  0  0  0  0  0  0
   13.1498    1.6510    0.0000 C   0  0  0  0  0  0  0  0  0  0  0  0
   13.7219    2.2455    0.0000 C   0  0  0  0  0  0  0  0  0  0  0  0
  1  2  1  0  0  0  0
  2  3  1  0  0  0  0
  3  4  2  0  0  0  0
  3  5  1  0  0  0  0
  1  5  1  0  0  0  0
  2  6  1  6  0  0  0
  6  7  1  0  0  0  0
  7  8  1  0  0  0  0
  8  9  1  0  0  0  0
  9 10  1  0  0  0  0
 10 11  1  0  0  0  0
  1 12  1  1  0  0  0
 12 13  1  0  0  0  0
 13 14  1  1  0  0  0
 14 15  1  0  0  0  0
 15 16  1  0  0  0  0
 16 17  1  0  0  0  0
 17 18  1  0  0  0  0
 18 19  1  0  0  0  0
 18 20  1  0  0  0  0
 16 21  1  6  0  0  0
 21 22  1  0  0  0  0
 22 23  2  0  0  0  0
 15 24  2  0  0  0  0
 13 25  1  0  0  0  0
 25 26  1  0  0  0  0
 26 27  1  0  0  0  0
 27 28  1  0  0  0  0
 28 29  1  0  0  0  0
 29 30  1  0  0  0  0
 30 31  1  0  0  0  0
 31 32  1  0  0  0  0
 32 33  1  0  0  0  0
 33 34  1  0  0  0  0
 34 35  1  0  0  0  0
M  END
>  <Name>
Orlistat

>  <CAS>
96829-58-2

>  <Formula>
C29H53NO5

>  <MolWt>
495.73 

>  <Bioactivity>
Orlistat is a drug designed to treat obesity. Its primary function is preventing the absorption of fats from the human diet, thereby reducing caloric intake. Orlistat works by inhibiting pancreatic lipase, an enzyme that breaks down triglycerides in the intestine. Without this enzyme, triglycerides from the diet are prevented from being hydrolyzed into absorbable free fatty acids and are excreted undigested.


>  <Pathways>
Metabolism

>  <Target>
Fatty acid synthase inhibitor; triacylglycerol lipase inhibitor

>  <Receptor>
Fatty acid synthase; triacylglycerol lipase

>  <Reference>
1. Uusitupa M. Curr Opin Lipidol. 1999 Feb;10(1):3-7. 

$$$$
T0706
  Mrv1561503291623562D          

 31 30  0  0  1  0            999 V2000
   -0.8757   -0.3744    0.0000 C   0  0  2  0  0  0  0  0  0  0  0  0
   -1.7007   -0.3744    0.0000 C   0  0  0  0  0  0  0  0  0  0  0  0
   -2.1132   -1.0888    0.0000 C   0  0  0  0  0  0  0  0  0  0  0  0
   -2.9382   -1.0888    0.0000 C   0  0  0  0  0  0  0  0  0  0  0  0
   -3.3507   -1.8033    0.0000 C   0  0  0  0  0  0  0  0  0  0  0  0
   -4.1757   -1.8033    0.0000 C   0  0  0  0  0  0  0  0  0  0  0  0
   -4.5882   -1.0888    0.0000 C   0  0  0  0  0  0  0  0  0  0  0  0
   -4.1757   -0.3744    0.0000 C   0  0  0  0  0  0  0  0  0  0  0  0
   -3.3507   -0.3744    0.0000 C   0  0  0  0  0  0  0  0  0  0  0  0
   -0.4632    0.3401    0.0000 N   0  0  0  0  0  0  0  0  0  0  0  0
    0.3618    0.3401    0.0000 C   0  0  2  0  0  0  0  0  0  0  0  0
    0.7743    1.0546    0.0000 C   0  0  0  0  0  0  0  0  0  0  0  0
    1.5993    1.0546    0.0000 N   0  0  0  0  0  0  0  0  0  0  0  0
    2.0843    1.7220    0.0000 C   0  0  1  0  0  0  0  0  0  0  0  0
    2.8689    1.4671    0.0000 C   0  0  0  0  0  0  0  0  0  0  0  0
    2.8689    0.6421    0.0000 C   0  0  0  0  0  0  0  0  0  0  0  0
    2.0843    0.3871    0.0000 C   0  0  0  0  0  0  0  0  0  0  0  0
    1.8293    2.5066    0.0000 C   0  0  0  0  0  0  0  0  0  0  0  0
    1.0224    2.6782    0.0000 O   0  0  0  0  0  0  0  0  0  0  0  0
    2.3814    3.1197    0.0000 O   0  0  0  0  0  0  0  0  0  0  0  0
    0.3618    1.7690    0.0000 O   0  0  0  0  0  0  0  0  0  0  0  0
    0.7743   -0.3744    0.0000 C   0  0  0  0  0  0  0  0  0  0  0  0
    1.5993   -0.3744    0.0000 C   0  0  0  0  0  0  0  0  0  0  0  0
    2.0118   -1.0888    0.0000 C   0  0  0  0  0  0  0  0  0  0  0  0
    2.8368   -1.0888    0.0000 C   0  0  0  0  0  0  0  0  0  0  0  0
    3.2493   -1.8033    0.0000 N   0  0  0  0  0  0  0  0  0  0  0  0
   -0.4632   -1.0888    0.0000 C   0  0  0  0  0  0  0  0  0  0  0  0
    0.3618   -1.0888    0.0000 O   0  0  0  0  0  0  0  0  0  0  0  0
   -0.8757   -1.8033    0.0000 O   0  0  0  0  0  0  0  0  0  0  0  0
    5.6065    0.0000    0.0000 O   0  0  0  0  0  0  0  0  0  0  0  0
    0.0000   -3.4533    0.0000 O   0  0  0  0  0  0  0  0  0  0  0  0
  1  2  1  0  0  0  0
  2  3  1  0  0  0  0
  3  4  1  0  0  0  0
  4  5  2  0  0  0  0
  5  6  1  0  0  0  0
  6  7  2  0  0  0  0
  7  8  1  0  0  0  0
  8  9  2  0  0  0  0
  4  9  1  0  0  0  0
  1 10  1  6  0  0  0
 11 10  1  6  0  0  0
 11 12  1  0  0  0  0
 12 13  1  0  0  0  0
 13 14  1  0  0  0  0
 14 15  1  0  0  0  0
 15 16  1  0  0  0  0
 16 17  1  0  0  0  0
 13 17  1  0  0  0  0
 14 18  1  6  0  0  0
 18 19  1  0  0  0  0
 18 20  2  0  0  0  0
 12 21  2  0  0  0  0
 11 22  1  0  0  0  0
 22 23  1  0  0  0  0
 23 24  1  0  0  0  0
 24 25  1  0  0  0  0
 25 26  1  0  0  0  0
  1 27  1  0  0  0  0
 27 28  1  0  0  0  0
 27 29  2  0  0  0  0
M  END
>  <Name>
Lisinopril

>  <CAS>
83915-83-7

>  <Formula>
C21H31N3O5

>  <MolWt>
405.49 

>  <Bioactivity>
One of the ANGIOTENSIN-CONVERTING ENZYME INHIBITORS (ACE inhibitors), orally active, that has been used in the treatment of hypertension and congestive heart failure.

>  <Pathways>
Angiogenesis;Endocrinology/ Hormones

>  <Target>
RAAS inhibitor;ACE inhibitor;MRP inhibitor

>  <Receptor>
ACE;MRP1

>  <Reference>
1. Andujar-Sanchez M, et al. FEBS Lett. 2007 Jul 24;581(18):3449-54.

$$$$
T1149
  Mrv1561503291623562D          

 25 26  0  0  0  0            999 V2000
    2.8579   -2.4750    0.0000 C   0  0  0  0  0  0  0  0  0  0  0  0
    2.1434   -2.8875    0.0000 C   0  0  0  0  0  0  0  0  0  0  0  0
    2.1434   -3.7125    0.0000 C   0  0  0  0  0  0  0  0  0  0  0  0
    1.4289   -4.1250    0.0000 C   0  0  0  0  0  0  0  0  0  0  0  0
    1.4289   -4.9500    0.0000 C   0  0  0  0  0  0  0  0  0  0  0  0
    0.7145   -5.3625    0.0000 C   0  0  0  0  0  0  0  0  0  0  0  0
   -0.0000   -4.9500    0.0000 C   0  0  0  0  0  0  0  0  0  0  0  0
   -0.7145   -5.3625    0.0000 Cl  0  0  0  0  0  0  0  0  0  0  0  0
   -0.0000   -4.1250    0.0000 C   0  0  0  0  0  0  0  0  0  0  0  0
    0.7145   -3.7125    0.0000 C   0  0  0  0  0  0  0  0  0  0  0  0
    2.8579   -4.1250    0.0000 O   0  0  0  0  0  0  0  0  0  0  0  0
    1.4289   -2.4750    0.0000 C   0  0  0  0  0  0  0  0  0  0  0  0
    1.4289   -1.6500    0.0000 C   0  0  0  0  0  0  0  0  0  0  0  0
    2.1434   -1.2375    0.0000 C   0  0  0  0  0  0  0  0  0  0  0  0
    2.8579   -1.6500    0.0000 C   0  0  0  0  0  0  0  0  0  0  0  0
    2.1434   -0.4125    0.0000 O   0  0  0  0  0  0  0  0  0  0  0  0
    2.8579    0.0000    0.0000 C   0  0  0  0  0  0  0  0  0  0  0  0
    3.5724    0.4125    0.0000 C   0  0  0  0  0  0  0  0  0  0  0  0
    3.5724    1.2375    0.0000 O   0  0  0  0  0  0  0  0  0  0  0  0
    4.2868    1.6500    0.0000 C   0  0  0  0  0  0  0  0  0  0  0  0
    4.2868    2.4750    0.0000 C   0  0  0  0  0  0  0  0  0  0  0  0
    5.0013    1.2375    0.0000 C   0  0  0  0  0  0  0  0  0  0  0  0
    4.2868   -0.0000    0.0000 O   0  0  0  0  0  0  0  0  0  0  0  0
    3.2704   -0.7145    0.0000 C   0  0  0  0  0  0  0  0  0  0  0  0
    2.4454    0.7145    0.0000 C   0  0  0  0  0  0  0  0  0  0  0  0
  1  2  2  0  0  0  0
  2  3  1  0  0  0  0
  3  4  1  0  0  0  0
  4  5  2  0  0  0  0
  5  6  1  0  0  0  0
  6  7  2  0  0  0  0
  7  8  1  0  0  0  0
  7  9  1  0  0  0  0
  9 10  2  0  0  0  0
  4 10  1  0  0  0  0
  3 11  2  0  0  0  0
  2 12  1  0  0  0  0
 12 13  2  0  0  0  0
 13 14  1  0  0  0  0
 14 15  2  0  0  0  0
  1 15  1  0  0  0  0
 14 16  1  0  0  0  0
 16 17  1  0  0  0  0
 17 18  1  0  0  0  0
 18 19  1  0  0  0  0
 19 20  1  0  0  0  0
 20 21  1  0  0  0  0
 20 22  1  0  0  0  0
 18 23  2  0  0  0  0
 17 24  1  0  0  0  0
 17 25  1  0  0  0  0
M  END
>  <Name>
Fenofibrate

>  <CAS>
49562-28-9

>  <Formula>
C20H21ClO4

>  <MolWt>
360.83 

>  <Bioactivity>
Fenofibrate is a Peroxisome Proliferator Receptor alpha Agonist. The mechanism of action of fenofibrate is as a Peroxisome Proliferator-activated Receptor alpha Agonist. The chemical classification of fenofibrate is PPAR alpha.


>  <Pathways>
Metabolism; Proteases/Proteasome

>  <Target>
MMP inhibitor;PPAR agonist

>  <Receptor>
MMP;PPAR alpha

>  <Reference>
1. Clavey V, et al. Cell Physiol Biochem. 1999;9(3):139-49. 

$$$$
938-73-8
  Mrv1561503291623562D          

 12 12  0  0  0  0            999 V2000
    1.4289    0.8250    0.0000 C   0  0  0  0  0  0  0  0  0  0  0  0
    1.4289    0.0000    0.0000 C   0  0  0  0  0  0  0  0  0  0  0  0
    0.7145   -0.4125    0.0000 C   0  0  0  0  0  0  0  0  0  0  0  0
   -0.0000    0.0000    0.0000 C   0  0  0  0  0  0  0  0  0  0  0  0
   -0.0000    0.8250    0.0000 C   0  0  0  0  0  0  0  0  0  0  0  0
    0.7145    1.2375    0.0000 C   0  0  0  0  0  0  0  0  0  0  0  0
    0.7145    2.0625    0.0000 C   0  0  0  0  0  0  0  0  0  0  0  0
    1.4289    2.4750    0.0000 N   0  0  0  0  0  0  0  0  0  0  0  0
    0.0000    2.4750    0.0000 O   0  0  0  0  0  0  0  0  0  0  0  0
   -0.7145    1.2375    0.0000 O   0  0  0  0  0  0  0  0  0  0  0  0
   -0.7145    2.0625    0.0000 C   0  0  0  0  0  0  0  0  0  0  0  0
   -1.4289    2.4750    0.0000 C   0  0  0  0  0  0  0  0  0  0  0  0
  1  2  2  0  0  0  0
  2  3  1  0  0  0  0
  3  4  2  0  0  0  0
  4  5  1  0  0  0  0
  5  6  2  0  0  0  0
  1  6  1  0  0  0  0
  6  7  1  0  0  0  0
  7  8  1  0  0  0  0
  7  9  2  0  0  0  0
  5 10  1  0  0  0  0
 10 11  1  0  0  0  0
 11 12  1  0  0  0  0
M  END
>  <Name>
Anovigam

>  <CAS>
938-73-8

>  <Formula>
C9H11NO2

>  <MolWt>
165.19 

>  <Bioactivity>
Ethenzamide is a common analgesic and anti-inflammatory drug that is used for the relief of fever, headaches, and other minor aches and pains.

>  <Pathways>
Neuroscience

>  <Target>
COX inhibitor

>  <Receptor>
Prostaglandin G/H synthase

>  <Reference>
1. Darias V, et al. Arch Pharm (Weinheim). 1992 Feb;325(2):83-7.

$$$$
T0679
  Mrv1561503291623562D          

 36 40  0  0  1  0            999 V2000
    1.0590   -1.1471    0.0000 C   0  0  1  0  0  0  0  0  0  0  0  0
    1.7264   -1.6320    0.0000 O   0  0  0  0  0  0  0  0  0  0  0  0
    1.4715   -2.4167    0.0000 C   0  0  1  0  0  0  0  0  0  0  0  0
    0.6465   -2.4167    0.0000 C   0  0  0  0  0  0  0  0  0  0  0  0
    0.3915   -1.6320    0.0000 O   0  0  0  0  0  0  0  0  0  0  0  0
    1.9564   -3.0841    0.0000 C   0  0  0  0  0  0  0  0  0  0  0  0
    1.6208   -3.8378    0.0000 O   0  0  0  0  0  0  0  0  0  0  0  0
    2.1058   -4.5052    0.0000 C   0  0  0  0  0  0  0  0  0  0  0  0
    2.9262   -4.4190    0.0000 C   0  0  0  0  0  0  0  0  0  0  0  0
    3.4112   -5.0864    0.0000 C   0  0  0  0  0  0  0  0  0  0  0  0
    3.0756   -5.8401    0.0000 C   0  0  0  0  0  0  0  0  0  0  0  0
    3.5605   -6.5075    0.0000 N   0  0  0  0  0  0  0  0  0  0  0  0
    4.3810   -6.4213    0.0000 C   0  0  0  0  0  0  0  0  0  0  0  0
    4.8659   -7.0887    0.0000 C   0  0  0  0  0  0  0  0  0  0  0  0
    4.5304   -7.8424    0.0000 N   0  0  0  0  0  0  0  0  0  0  0  0
    3.7099   -7.9286    0.0000 C   0  0  0  0  0  0  0  0  0  0  0  0
    3.2250   -7.2612    0.0000 C   0  0  0  0  0  0  0  0  0  0  0  0
    5.0153   -8.5099    0.0000 C   0  0  0  0  0  0  0  0  0  0  0  0
    4.6797   -9.2635    0.0000 O   0  0  0  0  0  0  0  0  0  0  0  0
    5.8358   -8.4236    0.0000 C   0  0  0  0  0  0  0  0  0  0  0  0
    2.2551   -5.9263    0.0000 C   0  0  0  0  0  0  0  0  0  0  0  0
    1.7702   -5.2589    0.0000 C   0  0  0  0  0  0  0  0  0  0  0  0
    1.4640   -0.4284    0.0000 C   0  0  0  0  0  0  0  0  0  0  0  0
    1.0440    0.2817    0.0000 C   0  0  0  0  0  0  0  0  0  0  0  0
    1.4490    1.0005    0.0000 C   0  0  0  0  0  0  0  0  0  0  0  0
    2.2740    1.0091    0.0000 C   0  0  0  0  0  0  0  0  0  0  0  0
    2.6790    1.7279    0.0000 Cl  0  0  0  0  0  0  0  0  0  0  0  0
    2.6939    0.2990    0.0000 C   0  0  0  0  0  0  0  0  0  0  0  0
    2.2889   -0.4197    0.0000 C   0  0  0  0  0  0  0  0  0  0  0  0
    2.7089   -1.1298    0.0000 Cl  0  0  0  0  0  0  0  0  0  0  0  0
    0.6540   -0.4284    0.0000 C   0  0  0  0  0  0  0  0  0  0  0  0
   -0.1710   -0.4197    0.0000 N   0  0  0  0  0  0  0  0  0  0  0  0
   -0.6629   -1.0821    0.0000 C   0  0  0  0  0  0  0  0  0  0  0  0
   -1.4448   -0.8189    0.0000 N   0  0  0  0  0  0  0  0  0  0  0  0
   -1.4361    0.0060    0.0000 C   0  0  0  0  0  0  0  0  0  0  0  0
   -0.6489    0.2528    0.0000 C   0  0  0  0  0  0  0  0  0  0  0  0
  1  2  1  0  0  0  0
  2  3  1  0  0  0  0
  3  4  1  0  0  0  0
  4  5  1  0  0  0  0
  1  5  1  0  0  0  0
  3  6  1  6  0  0  0
  6  7  1  0  0  0  0
  7  8  1  0  0  0  0
  8  9  2  0  0  0  0
  9 10  1  0  0  0  0
 10 11  2  0  0  0  0
 11 12  1  0  0  0  0
 12 13  1  0  0  0  0
 13 14  1  0  0  0  0
 14 15  1  0  0  0  0
 15 16  1  0  0  0  0
 16 17  1  0  0  0  0
 12 17  1  0  0  0  0
 15 18  1  0  0  0  0
 18 19  2  0  0  0  0
 18 20  1  0  0  0  0
 11 21  1  0  0  0  0
 21 22  2  0  0  0  0
  8 22  1  0  0  0  0
  1 23  1  1  0  0  0
 23 24  2  0  0  0  0
 24 25  1  0  0  0  0
 25 26  2  0  0  0  0
 26 27  1  0  0  0  0
 26 28  1  0  0  0  0
 28 29  2  0  0  0  0
 23 29  1  0  0  0  0
 29 30  1  0  0  0  0
  1 31  1  6  0  0  0
 31 32  1  0  0  0  0
 32 33  1  0  0  0  0
 33 34  2  0  0  0  0
 34 35  1  0  0  0  0
 35 36  2  0  0  0  0
 32 36  1  0  0  0  0
M  END
>  <Name>
Ketoconazole

>  <CAS>
65277-42-1

>  <Formula>
C26H28Cl2N4O4

>  <MolWt>
531.43 

>  <Bioactivity>
Broad spectrum antifungal agent used for long periods at high doses, especially in immunosuppressed patients.

>  <Pathways>
Microbiology & Virology; Enzyme

>  <Target>
Antifungal; Hydroxylase

>  <Receptor>
14-? Demethylase;17-hydroxylase, Steroid 21-hydroxylase, 12-hydroxylase

>  <Reference>
1. Eil C. Horm Metab Res. 1992 Aug;24(8):367-70. 

$$$$
T0709
  Mrv1561503291623562D          

 47 50  0  0  0  0            999 V2000
    7.9953    2.1804    0.0000 C   0  0  0  0  0  0  0  0  0  0  0  0
    7.1787    2.2982    0.0000 C   0  0  0  0  0  0  0  0  0  0  0  0
    6.8725    3.0643    0.0000 C   0  0  0  0  0  0  0  0  0  0  0  0
    7.3829    3.7125    0.0000 C   0  0  0  0  0  0  0  0  0  0  0  0
    8.1994    3.5946    0.0000 C   0  0  0  0  0  0  0  0  0  0  0  0
    8.7097    4.2429    0.0000 C   0  0  0  0  0  0  0  0  0  0  0  0
    9.5263    4.1250    0.0000 C   0  0  0  0  0  0  0  0  0  0  0  0
    9.8325    3.3589    0.0000 C   0  0  0  0  0  0  0  0  0  0  0  0
    9.3221    2.7107    0.0000 C   0  0  0  0  0  0  0  0  0  0  0  0
    9.6283    1.9446    0.0000 C   0  0  0  0  0  0  0  0  0  0  0  0
    9.1180    1.2964    0.0000 C   0  0  0  0  0  0  0  0  0  0  0  0
    9.4242    0.5304    0.0000 C   0  0  0  0  0  0  0  0  0  0  0  0
    8.9139   -0.1179    0.0000 C   0  0  0  0  0  0  0  0  0  0  0  0
    9.2201   -0.8839    0.0000 C   0  0  0  0  0  0  0  0  0  0  0  0
   10.0366   -1.0018    0.0000 C   0  0  0  0  0  0  0  0  0  0  0  0
   10.3428   -1.7679    0.0000 C   0  0  0  0  0  0  0  0  0  0  0  0
    9.8325   -2.4161    0.0000 C   0  0  0  0  0  0  0  0  0  0  0  0
    9.0159   -2.2982    0.0000 C   0  0  0  0  0  0  0  0  0  0  0  0
    8.7097   -1.5321    0.0000 O   0  0  0  0  0  0  0  0  0  0  0  0
    8.5056   -2.9464    0.0000 C   0  0  0  0  0  0  0  0  0  0  0  0
    7.6891   -2.8286    0.0000 C   0  0  0  0  0  0  0  0  0  0  0  0
    7.3829   -2.0625    0.0000 C   0  0  0  0  0  0  0  0  0  0  0  0
    6.5663   -1.9446    0.0000 C   0  0  0  0  0  0  0  0  0  0  0  0
    6.2601   -1.1786    0.0000 C   0  0  0  0  0  0  0  0  0  0  0  0
    5.7498   -1.8268    0.0000 O   0  0  0  0  0  0  0  0  0  0  0  0
    6.7705   -0.5304    0.0000 C   0  0  0  0  0  0  0  0  0  0  0  0
    6.4643    0.2357    0.0000 C   0  0  0  0  0  0  0  0  0  0  0  0
    6.9746    0.8839    0.0000 C   0  0  0  0  0  0  0  0  0  0  0  0
    6.1581    1.0018    0.0000 O   0  0  0  0  0  0  0  0  0  0  0  0
    6.6684    1.6500    0.0000 O   0  0  0  0  0  0  0  0  0  0  0  0
    7.1787   -3.4768    0.0000 O   0  0  0  0  0  0  0  0  0  0  0  0
    9.3221   -3.0643    0.0000 O   0  0  0  0  0  0  0  0  0  0  0  0
   11.1594   -1.8857    0.0000 O   0  0  0  0  0  0  0  0  0  0  0  0
   10.5470   -0.3536    0.0000 C   0  0  0  0  0  0  0  0  0  0  0  0
   11.3635   -0.4714    0.0000 O   0  0  0  0  0  0  0  0  0  0  0  0
   10.7495    0.4462    0.0000 O   0  0  0  0  0  0  0  0  0  0  0  0
   10.2408    0.4125    0.0000 O   0  0  0  0  0  0  0  0  0  0  0  0
   10.7511    1.0607    0.0000 C   0  0  0  0  0  0  0  0  0  0  0  0
   11.5676    0.9429    0.0000 C   0  0  0  0  0  0  0  0  0  0  0  0
   12.0780    1.5911    0.0000 C   0  0  0  0  0  0  0  0  0  0  0  0
   11.7718    2.3571    0.0000 C   0  0  0  0  0  0  0  0  0  0  0  0
   10.9552    2.4750    0.0000 C   0  0  0  0  0  0  0  0  0  0  0  0
   10.4449    1.8268    0.0000 O   0  0  0  0  0  0  0  0  0  0  0  0
   10.6490    3.2411    0.0000 C   0  0  0  0  0  0  0  0  0  0  0  0
   12.2821    3.0054    0.0000 O   0  0  0  0  0  0  0  0  0  0  0  0
   12.8945    1.4732    0.0000 N   0  0  0  0  0  0  0  0  0  0  0  0
   11.8738    0.1768    0.0000 O   0  0  0  0  0  0  0  0  0  0  0  0
  1  2  1  0  0  0  0
  2  3  1  0  0  0  0
  4  3  1  4  0  0  0
  4  5  2  0  0  0  0
  6  5  1  4  0  0  0
  6  7  2  0  0  0  0
  8  7  1  4  0  0  0
  8  9  2  0  0  0  0
 10  9  1  4  0  0  0
 10 11  2  0  0  0  0
 11 12  1  0  0  0  0
 12 13  1  0  0  0  0
 13 14  1  0  0  0  0
 14 15  1  0  0  0  0
 15 16  1  0  0  0  0
 16 17  1  0  0  0  0
 17 18  1  0  0  0  0
 18 19  1  0  0  0  0
 14 19  1  0  0  0  0
 18 20  1  0  0  0  0
 20 21  1  0  0  0  0
 21 22  1  0  0  0  0
 22 23  1  0  0  0  0
 23 24  1  0  0  0  0
 24 25  1  0  0  0  0
 23 25  1  0  0  0  0
 26 24  1  4  0  0  0
 26 27  2  0  0  0  0
 27 28  1  0  0  0  0
 28 29  2  0  0  0  0
 28 30  1  0  0  0  0
  2 30  1  0  0  0  0
 21 31  1  0  0  0  0
 18 32  1  0  0  0  0
 16 33  1  0  0  0  0
 15 34  1  0  0  0  0
 34 35  2  0  0  0  0
 34 36  1  0  0  0  0
 12 37  1  0  0  0  0
 37 38  1  0  0  0  0
 38 39  1  0  0  0  0
 39 40  1  0  0  0  0
 40 41  1  0  0  0  0
 41 42  1  0  0  0  0
 42 43  1  0  0  0  0
 38 43  1  0  0  0  0
 42 44  1  0  0  0  0
 41 45  1  0  0  0  0
 40 46  1  0  0  0  0
 39 47  1  0  0  0  0
M  END
>  <Name>
Pimaricin

>  <CAS>
7681-93-8

>  <Formula>
C33H47NO13

>  <MolWt>
665.73 

>  <Bioactivity>
Natamycin is a Polyene Antimicrobial. The chemical classification of natamycin is Polyenes.

>  <Pathways>
Microbiology & Virology

>  <Target>
Antibiotic

>  <Receptor>
Ergosterol

>  <Reference>
1. te Welscher YM, et al. Antimicrob Agents Chemother. 2010 Jun;54(6):2618-25.

$$$$
T1147
  Mrv1561503291623562D          

 38 35  0  0  0  0            999 V2000
    0.4125    0.0000    0.0000 H   0  3  0  0  0  0  0  0  0  0  0  0
    3.5946    0.0000    0.0000 H   0  3  0  0  0  0  0  0  0  0  0  0
   -6.0730   -2.0625    0.0000 C   0  0  0  0  0  0  0  0  0  0  0  0
   -6.0730   -2.8875    0.0000 C   0  0  0  0  0  0  0  0  0  0  0  0
   -5.3585   -3.3000    0.0000 N   0  0  0  0  0  0  0  0  0  0  0  0
   -4.6441   -2.8875    0.0000 C   0  0  0  0  0  0  0  0  0  0  0  0
   -3.9296   -3.3000    0.0000 N   0  0  0  0  0  0  0  0  0  0  0  0
   -3.2151   -2.8875    0.0000 C   0  0  0  0  0  0  0  0  0  0  0  0
   -2.5006   -3.3000    0.0000 N   0  0  0  0  0  0  0  0  0  0  0  0
   -1.7862   -2.8875    0.0000 C   0  0  0  0  0  0  0  0  0  0  0  0
   -1.0717   -3.3000    0.0000 C   0  0  0  0  0  0  0  0  0  0  0  0
   -0.3572   -2.8875    0.0000 C   0  0  0  0  0  0  0  0  0  0  0  0
    0.3572   -3.3000    0.0000 C   0  0  0  0  0  0  0  0  0  0  0  0
    1.0717   -2.8875    0.0000 C   0  0  0  0  0  0  0  0  0  0  0  0
    1.7862   -3.3000    0.0000 C   0  0  0  0  0  0  0  0  0  0  0  0
    2.5006   -2.8875    0.0000 N   0  0  0  0  0  0  0  0  0  0  0  0
    3.2151   -3.3000    0.0000 C   0  0  0  0  0  0  0  0  0  0  0  0
    3.9296   -2.8875    0.0000 N   0  0  0  0  0  0  0  0  0  0  0  0
    4.6441   -3.3000    0.0000 C   0  0  0  0  0  0  0  0  0  0  0  0
    5.3585   -2.8875    0.0000 N   0  0  0  0  0  0  0  0  0  0  0  0
    6.0730   -3.3000    0.0000 C   0  0  0  0  0  0  0  0  0  0  0  0
    6.7875   -2.8875    0.0000 C   0  0  0  0  0  0  0  0  0  0  0  0
    7.5019   -3.3000    0.0000 C   0  0  0  0  0  0  0  0  0  0  0  0
    7.5019   -4.1250    0.0000 C   0  0  0  0  0  0  0  0  0  0  0  0
    8.2164   -4.5375    0.0000 Cl  0  0  0  0  0  0  0  0  0  0  0  0
    6.7875   -4.5375    0.0000 C   0  0  0  0  0  0  0  0  0  0  0  0
    6.0730   -4.1250    0.0000 C   0  0  0  0  0  0  0  0  0  0  0  0
    4.6441   -4.1250    0.0000 N   0  0  0  0  0  0  0  0  0  0  0  0
    3.2151   -4.1250    0.0000 N   0  0  0  0  0  0  0  0  0  0  0  0
   -3.2151   -2.0625    0.0000 N   0  0  0  0  0  0  0  0  0  0  0  0
   -4.6441   -2.0625    0.0000 N   0  0  0  0  0  0  0  0  0  0  0  0
   -6.7875   -3.3000    0.0000 C   0  0  0  0  0  0  0  0  0  0  0  0
   -7.5019   -2.8875    0.0000 C   0  0  0  0  0  0  0  0  0  0  0  0
   -7.5019   -2.0625    0.0000 C   0  0  0  0  0  0  0  0  0  0  0  0
   -6.7875   -1.6500    0.0000 C   0  0  0  0  0  0  0  0  0  0  0  0
   -8.2164   -1.6500    0.0000 Cl  0  0  0  0  0  0  0  0  0  0  0  0
   -0.4125    0.0000    0.0000 Cl  0  5  0  0  0  0  0  0  0  0  0  0
    2.7696    0.0000    0.0000 Cl  0  5  0  0  0  0  0  0  0  0  0  0
  3  4  2  0  0  0  0
  4  5  1  0  0  0  0
  5  6  1  0  0  0  0
  6  7  2  3  0  0  0
  7  8  1  0  0  0  0
  8  9  2  3  0  0  0
  9 10  1  0  0  0  0
 10 11  1  0  0  0  0
 11 12  1  0  0  0  0
 12 13  1  0  0  0  0
 13 14  1  0  0  0  0
 14 15  1  0  0  0  0
 15 16  1  0  0  0  0
 16 17  2  3  0  0  0
 17 18  1  0  0  0  0
 18 19  2  3  0  0  0
 19 20  1  0  0  0  0
 20 21  1  0  0  0  0
 21 22  2  0  0  0  0
 22 23  1  0  0  0  0
 23 24  2  0  0  0  0
 24 25  1  0  0  0  0
 24 26  1  0  0  0  0
 26 27  2  0  0  0  0
 21 27  1  0  0  0  0
 19 28  1  0  0  0  0
 17 29  1  0  0  0  0
  8 30  1  0  0  0  0
  6 31  1  0  0  0  0
  4 32  1  0  0  0  0
 32 33  2  0  0  0  0
 33 34  1  0  0  0  0
 34 35  2  0  0  0  0
  3 35  1  0  0  0  0
 34 36  1  0  0  0  0
M  CHG  4   1   1   2   1  37  -1  38  -1
M  END
>  <Name>
Chlorhexidine HCl

>  <CAS>
3697-42-5

>  <Formula>
C22H32Cl4N10

>  <MolWt>
578.38 

>  <Bioactivity>
Chlorhexidine hydrochloride is an antiseptic effective against a wide variety of gram-negative and gram-positive organisms.

>  <Pathways>
Microbiology & Virology

>  <Target>
Antibacterial

>  <Receptor>
cell wall ;HNMT, CAT

>  <Reference>
1. Jenkins S, et al. J Clin Periodontol, 1988, 15(7), 415-424.

$$$$
T1405
  Mrv1561503291623562D          

 41 44  0  0  0  0            999 V2000
    3.6090   -0.8090    0.0000 C   0  0  0  0  0  0  0  0  0  0  0  0
    4.2221   -0.2570    0.0000 C   0  0  0  0  0  0  0  0  0  0  0  0
    4.1358    0.5635    0.0000 C   0  0  0  0  0  0  0  0  0  0  0  0
    4.8895    0.8990    0.0000 S   0  0  0  0  0  0  0  0  0  0  0  0
    5.4415    0.2859    0.0000 C   0  0  0  0  0  0  0  0  0  0  0  0
    5.0290   -0.4285    0.0000 N   0  0  0  0  0  0  0  0  0  0  0  0
    3.4214    0.9760    0.0000 C   0  0  0  0  0  0  0  0  0  0  0  0
    2.7069    0.5635    0.0000 C   0  0  0  0  0  0  0  0  0  0  0  0
    1.9924    0.9760    0.0000 C   0  0  0  0  0  0  0  0  0  0  0  0
    1.2780    0.5635    0.0000 C   0  0  0  0  0  0  0  0  0  0  0  0
    0.5635    0.9760    0.0000 N   0  0  0  0  0  0  0  0  0  0  0  0
    0.5635    1.8010    0.0000 C   0  0  0  0  0  0  0  0  0  0  0  0
   -0.2615    1.8010    0.0000 C   0  0  0  0  0  0  0  0  0  0  0  0
   -0.2615    0.9760    0.0000 C   0  0  0  0  0  0  0  0  0  0  0  0
   -0.8449    0.3926    0.0000 O   0  0  0  0  0  0  0  0  0  0  0  0
   -0.8449    2.3843    0.0000 N   0  0  0  0  0  0  0  0  0  0  0  0
   -1.6418    2.1708    0.0000 C   0  0  0  0  0  0  0  0  0  0  0  0
   -1.8553    1.3739    0.0000 O   0  0  0  0  0  0  0  0  0  0  0  0
   -2.2251    2.7542    0.0000 C   0  0  0  0  0  0  0  0  0  0  0  0
   -3.0220    2.5407    0.0000 N   0  0  0  0  0  0  0  0  0  0  0  0
   -3.6054    3.1240    0.0000 O   0  0  0  0  0  0  0  0  0  0  0  0
   -4.4023    2.9105    0.0000 C   0  0  0  0  0  0  0  0  0  0  0  0
   -2.0116    3.5511    0.0000 C   0  0  0  0  0  0  0  0  0  0  0  0
   -2.5308    4.1922    0.0000 C   0  0  0  0  0  0  0  0  0  0  0  0
   -2.0815    4.8841    0.0000 S   0  0  0  0  0  0  0  0  0  0  0  0
   -1.2846    4.6706    0.0000 C   0  0  0  0  0  0  0  0  0  0  0  0
   -1.2414    3.8467    0.0000 N   0  0  0  0  0  0  0  0  0  0  0  0
   -0.6434    5.1898    0.0000 N   0  0  0  0  0  0  0  0  0  0  0  0
    1.2780    2.2135    0.0000 S   0  0  0  0  0  0  0  0  0  0  0  0
    1.9924    1.8010    0.0000 C   0  0  0  0  0  0  0  0  0  0  0  0
    1.2780   -0.2615    0.0000 C   0  0  0  0  0  0  0  0  0  0  0  0
    0.5635   -0.6740    0.0000 O   0  0  0  0  0  0  0  0  0  0  0  0
    1.9924   -0.6740    0.0000 O   0  0  0  0  0  0  0  0  0  0  0  0
    1.9924   -1.4990    0.0000 C   0  0  0  0  0  0  0  0  0  0  0  0
    2.7069   -1.9115    0.0000 O   0  0  0  0  0  0  0  0  0  0  0  0
    2.7069   -2.7365    0.0000 C   0  0  0  0  0  0  0  0  0  0  0  0
    1.9924   -3.1490    0.0000 O   0  0  0  0  0  0  0  0  0  0  0  0
    3.4214   -3.1490    0.0000 C   0  0  0  0  0  0  0  0  0  0  0  0
    4.1358   -3.5615    0.0000 C   0  0  0  0  0  0  0  0  0  0  0  0
    3.0089   -3.8635    0.0000 C   0  0  0  0  0  0  0  0  0  0  0  0
    3.8339   -2.4345    0.0000 C   0  0  0  0  0  0  0  0  0  0  0  0
  1  2  1  0  0  0  0
  2  3  2  0  0  0  0
  3  4  1  0  0  0  0
  4  5  1  0  0  0  0
  5  6  2  0  0  0  0
  2  6  1  0  0  0  0
  7  3  1  4  0  0  0
  7  8  2  0  0  0  0
  8  9  1  0  0  0  0
  9 10  2  0  0  0  0
 10 11  1  0  0  0  0
 11 12  1  0  0  0  0
 12 13  1  0  0  0  0
 13 14  1  0  0  0  0
 11 14  1  0  0  0  0
 14 15  2  0  0  0  0
 13 16  1  0  0  0  0
 16 17  1  0  0  0  0
 17 18  2  0  0  0  0
 17 19  1  0  0  0  0
 19 20  2  0  0  0  0
 20 21  1  4  0  0  0
 21 22  1  0  0  0  0
 19 23  1  0  0  0  0
 23 24  2  0  0  0  0
 24 25  1  0  0  0  0
 25 26  1  0  0  0  0
 26 27  2  0  0  0  0
 23 27  1  0  0  0  0
 26 28  1  0  0  0  0
 12 29  1  0  0  0  0
 29 30  1  0  0  0  0
  9 30  1  0  0  0  0
 10 31  1  0  0  0  0
 31 32  2  0  0  0  0
 31 33  1  0  0  0  0
 33 34  1  0  0  0  0
 34 35  1  0  0  0  0
 35 36  1  0  0  0  0
 36 37  2  0  0  0  0
 36 38  1  0  0  0  0
 38 39  1  0  0  0  0
 38 40  1  0  0  0  0
 38 41  1  0  0  0  0
M  END
>  <Name>
Cefditoren pivoxil

>  <CAS>
117467-28-4

>  <Formula>
C25H28N6O7S3

>  <MolWt>
620.72 

>  <Bioactivity>
Cefditoren is a third-generation cephalosporin antibiotic for oral use. It is commonly marketed under the trade name Spectracef by Cornerstone BioPharma.


>  <Pathways>
Microbiology & Virology

>  <Target>
Antibacterial

>  <Receptor>
PBPs

>  <Reference>
1. Martin SI, Kaye KM. Infect Dis Clin North Am. 2004 Sep;18(3):603-19, ix. 

$$$$
1744-22-5
  Mrv1561503291623562D          

 15 16  0  0  0  0            999 V2000
    3.2789    1.2375    0.0000 C   0  0  0  0  0  0  0  0  0  0  0  0
    3.9934    0.8250    0.0000 C   0  0  0  0  0  0  0  0  0  0  0  0
    4.7079    1.2375    0.0000 O   0  0  0  0  0  0  0  0  0  0  0  0
    5.4223    0.8250    0.0000 C   0  0  0  0  0  0  0  0  0  0  0  0
    6.1368    0.4125    0.0000 F   0  0  0  0  0  0  0  0  0  0  0  0
    5.8348    1.5395    0.0000 F   0  0  0  0  0  0  0  0  0  0  0  0
    5.0098    0.1105    0.0000 F   0  0  0  0  0  0  0  0  0  0  0  0
    3.9934    0.0000    0.0000 C   0  0  0  0  0  0  0  0  0  0  0  0
    3.2789   -0.4125    0.0000 C   0  0  0  0  0  0  0  0  0  0  0  0
    2.5645   -0.0000    0.0000 C   0  0  0  0  0  0  0  0  0  0  0  0
    2.5645    0.8250    0.0000 C   0  0  0  0  0  0  0  0  0  0  0  0
    1.7798    1.0799    0.0000 S   0  0  0  0  0  0  0  0  0  0  0  0
    1.2949    0.4125    0.0000 C   0  0  0  0  0  0  0  0  0  0  0  0
    1.7798   -0.2549    0.0000 N   0  0  0  0  0  0  0  0  0  0  0  0
    0.4699    0.4125    0.0000 N   0  0  0  0  0  0  0  0  0  0  0  0
  1  2  2  0  0  0  0
  2  3  1  0  0  0  0
  3  4  1  0  0  0  0
  4  5  1  0  0  0  0
  4  6  1  0  0  0  0
  4  7  1  0  0  0  0
  2  8  1  0  0  0  0
  8  9  2  0  0  0  0
  9 10  1  0  0  0  0
 10 11  2  0  0  0  0
  1 11  1  0  0  0  0
 11 12  1  0  0  0  0
 12 13  1  0  0  0  0
 13 14  2  0  0  0  0
 10 14  1  0  0  0  0
 13 15  1  0  0  0  0
M  END
>  <Name>
Riluzole

>  <CAS>
1744-22-5

>  <Formula>
C8H5F3N2OS

>  <MolWt>
234.20 

>  <Bioactivity>
Riluzole is a sodium channel protein inhibitor and potent neuroprotective agent. It has been shown to preferentially block tetrodotoxin-sensitive sodium channels, which are associated with damaged neurons. In the presence of negative potentials, Riluzole was shown to also block tetrodotoxin-resistant sodium channels. It has been reported that Riluzole exerts its neuroprotective action under ischemic conditions, thereby suppressing glutamatergic receptor stimulation and calcium influx. Research shows that this product activates the TREK family of potassium channels and directly affects the glutamatergic system. Riluzole inhibits glutamate release from presynaptic terminals and increases Na+-dependent glutamate uptake in rat cortical synaptosomes. Riluzole blocks voltage-dependent Na+ channels and inhibits GABA uptake by striatal synaptosomes.

>  <Pathways>
Membrane Transporter/Ion Channel; Neuroscience

>  <Target>
GluR antagonist; Sodium Channel inhibitor

>  <Receptor>
NMDA receptor ;Sodium channel

>  <Reference>
1. Schwartz G, Fehlings MG. Prog Brain Res. 2002;137:177-90. 

$$$$
T0682
  Mrv1561503291623562D          

 15 16  0  0  1  0            999 V2000
    0.7145   -1.2375    0.0000 C   0  0  1  0  0  0  0  0  0  0  0  0
    0.7145   -0.4125    0.0000 N   0  0  0  0  0  0  0  0  0  0  0  0
   -0.0000   -0.0000    0.0000 C   0  0  0  0  0  0  0  0  0  0  0  0
   -0.0000    0.8250    0.0000 N   0  0  0  0  0  0  0  0  0  0  0  0
    0.7145    1.2375    0.0000 C   0  0  0  0  0  0  0  0  0  0  0  0
    0.7145    2.0625    0.0000 N   0  0  0  0  0  0  0  0  0  0  0  0
    1.4289    0.8250    0.0000 C   0  0  0  0  0  0  0  0  0  0  0  0
    1.4289   -0.0000    0.0000 C   0  0  0  0  0  0  0  0  0  0  0  0
   -0.7145   -0.4125    0.0000 O   0  0  0  0  0  0  0  0  0  0  0  0
    1.3819   -1.7224    0.0000 O   0  0  0  0  0  0  0  0  0  0  0  0
    1.1270   -2.5070    0.0000 C   0  0  1  0  0  0  0  0  0  0  0  0
    1.6119   -3.1745    0.0000 C   0  0  0  0  0  0  0  0  0  0  0  0
    2.4324   -3.0882    0.0000 O   0  0  0  0  0  0  0  0  0  0  0  0
    0.3020   -2.5070    0.0000 S   0  0  0  0  0  0  0  0  0  0  0  0
    0.0470   -1.7224    0.0000 C   0  0  0  0  0  0  0  0  0  0  0  0
  1  2  1  1  0  0  0
  2  3  1  0  0  0  0
  3  4  1  0  0  0  0
  4  5  2  0  0  0  0
  5  6  1  0  0  0  0
  5  7  1  0  0  0  0
  7  8  2  0  0  0  0
  2  8  1  0  0  0  0
  3  9  2  0  0  0  0
  1 10  1  0  0  0  0
 10 11  1  0  0  0  0
 11 12  1  1  0  0  0
 12 13  1  0  0  0  0
 11 14  1  0  0  0  0
 14 15  1  0  0  0  0
  1 15  1  0  0  0  0
M  END
>  <Name>
Lamivudine

>  <CAS>
134678-17-4

>  <Formula>
C8H11N3O3S

>  <MolWt>
229.26 

>  <Bioactivity>
A reverse transcriptase inhibitor and ZALCITABINE analog in which a sulfur atom replaces the 3' carbon of the pentose ring. It is used to treat HIV disease.


>  <Pathways>
Microbiology & Virology

>  <Target>
Antiviral;Reverse Transcriptase inhibitor

>  <Receptor>
Reverse Transcriptase

>  <Reference>
1. van Leeuwen R, et al. AIDS. 1992 Dec;6(12):1471-5.

$$$$
106266-06-2
  Mrv1561503291623562D          

 30 34  0  0  0  0            999 V2000
   -5.2954    1.3548    0.0000 C   0  0  0  0  0  0  0  0  0  0  0  0
   -6.1024    1.1833    0.0000 C   0  0  0  0  0  0  0  0  0  0  0  0
   -6.6544    1.7964    0.0000 C   0  0  0  0  0  0  0  0  0  0  0  0
   -6.3995    2.5810    0.0000 C   0  0  0  0  0  0  0  0  0  0  0  0
   -5.5925    2.7525    0.0000 C   0  0  0  0  0  0  0  0  0  0  0  0
   -5.0405    2.1394    0.0000 C   0  0  0  0  0  0  0  0  0  0  0  0
   -4.2868    2.4750    0.0000 C   0  0  0  0  0  0  0  0  0  0  0  0
   -4.3731    3.2955    0.0000 N   0  0  0  0  0  0  0  0  0  0  0  0
   -5.1800    3.4670    0.0000 O   0  0  0  0  0  0  0  0  0  0  0  0
   -3.5724    2.0625    0.0000 C   0  0  0  0  0  0  0  0  0  0  0  0
   -2.8579    2.4750    0.0000 C   0  0  0  0  0  0  0  0  0  0  0  0
   -2.1434    2.0625    0.0000 C   0  0  0  0  0  0  0  0  0  0  0  0
   -2.1434    1.2375    0.0000 N   0  0  0  0  0  0  0  0  0  0  0  0
   -1.4289    0.8250    0.0000 C   0  0  0  0  0  0  0  0  0  0  0  0
   -1.4289   -0.0000    0.0000 C   0  0  0  0  0  0  0  0  0  0  0  0
   -0.7145   -0.4125    0.0000 C   0  0  0  0  0  0  0  0  0  0  0  0
   -0.7145   -1.2375    0.0000 C   0  0  0  0  0  0  0  0  0  0  0  0
   -0.0000   -1.6500    0.0000 N   0  0  0  0  0  0  0  0  0  0  0  0
    0.7145   -1.2375    0.0000 C   0  0  0  0  0  0  0  0  0  0  0  0
    0.7145   -0.4125    0.0000 N   0  0  0  0  0  0  0  0  0  0  0  0
   -0.0000   -0.0000    0.0000 C   0  0  0  0  0  0  0  0  0  0  0  0
   -0.0000    0.8250    0.0000 O   0  0  0  0  0  0  0  0  0  0  0  0
    1.4289    0.0000    0.0000 C   0  0  0  0  0  0  0  0  0  0  0  0
    2.1434   -0.4125    0.0000 C   0  0  0  0  0  0  0  0  0  0  0  0
    2.1434   -1.2375    0.0000 C   0  0  0  0  0  0  0  0  0  0  0  0
    1.4289   -1.6500    0.0000 C   0  0  0  0  0  0  0  0  0  0  0  0
   -1.4289   -1.6500    0.0000 C   0  0  0  0  0  0  0  0  0  0  0  0
   -2.8579    0.8250    0.0000 C   0  0  0  0  0  0  0  0  0  0  0  0
   -3.5724    1.2375    0.0000 C   0  0  0  0  0  0  0  0  0  0  0  0
   -7.4614    1.6249    0.0000 F   0  0  0  0  0  0  0  0  0  0  0  0
  1  2  2  0  0  0  0
  2  3  1  0  0  0  0
  3  4  2  0  0  0  0
  4  5  1  0  0  0  0
  5  6  2  0  0  0  0
  1  6  1  0  0  0  0
  6  7  1  0  0  0  0
  7  8  2  0  0  0  0
  8  9  1  0  0  0  0
  5  9  1  0  0  0  0
  7 10  1  0  0  0  0
 10 11  1  0  0  0  0
 11 12  1  0  0  0  0
 12 13  1  0  0  0  0
 13 14  1  0  0  0  0
 14 15  1  0  0  0  0
 15 16  1  0  0  0  0
 16 17  2  0  0  0  0
 17 18  1  0  0  0  0
 18 19  2  0  0  0  0
 19 20  1  0  0  0  0
 20 21  1  0  0  0  0
 16 21  1  0  0  0  0
 21 22  2  0  0  0  0
 20 23  1  0  0  0  0
 23 24  1  0  0  0  0
 24 25  1  0  0  0  0
 25 26  1  0  0  0  0
 19 26  1  0  0  0  0
 17 27  1  0  0  0  0
 13 28  1  0  0  0  0
 28 29  1  0  0  0  0
 10 29  1  0  0  0  0
  3 30  1  0  0  0  0
M  END
>  <Name>
Risperidal

>  <CAS>
106266-06-2

>  <Formula>
C23H27FN4O2

>  <MolWt>
410.48 

>  <Bioactivity>
A selective blocker of DOPAMINE D2 RECEPTORS and SEROTONIN 5-HT2 RECEPTORS that acts as an atypical antipsychotic agent. Risperidone is a mutil-targeted antagonist for dopamine, serotonin, adrenergic and histamine receptors, used to treat schizophrenia and bipolar disorder.

>  <Pathways>
Neuroscience

>  <Target>
5-HT receptor antagonist;Adrenergic Receptor;Dopamine Receptor antagonist;Histamine antagonist

>  <Receptor>
5-HT receptor;?-adrenergic receptor ;Dopamine receptor;Histamine H1 receptor

>  <Reference>
1. Keks NA, Culhane C. Expert Opin Investig Drugs. 1999 Apr;8(4):443-52. 

$$$$
103577-45-3
  Mrv1561503291623562D          

 25 27  0  0  0  0            999 V2000
    3.2789    1.2375    0.0000 C   0  0  0  0  0  0  0  0  0  0  0  0
    3.9934    0.8250    0.0000 C   0  0  0  0  0  0  0  0  0  0  0  0
    3.9934    0.0000    0.0000 C   0  0  0  0  0  0  0  0  0  0  0  0
    3.2789   -0.4125    0.0000 C   0  0  0  0  0  0  0  0  0  0  0  0
    2.5645   -0.0000    0.0000 C   0  0  0  0  0  0  0  0  0  0  0  0
    2.5645    0.8250    0.0000 C   0  0  0  0  0  0  0  0  0  0  0  0
    1.7798    1.0799    0.0000 N   0  0  0  0  0  0  0  0  0  0  0  0
    1.2949    0.4125    0.0000 C   0  0  0  0  0  0  0  0  0  0  0  0
    1.7798   -0.2549    0.0000 N   0  0  0  0  0  0  0  0  0  0  0  0
    0.4699    0.4125    0.0000 S   0  0  0  0  0  0  0  0  0  0  0  0
    0.0574    1.1270    0.0000 C   0  0  0  0  0  0  0  0  0  0  0  0
   -0.7676    1.1270    0.0000 C   0  0  0  0  0  0  0  0  0  0  0  0
   -1.1801    0.4125    0.0000 N   0  0  0  0  0  0  0  0  0  0  0  0
   -2.0051    0.4125    0.0000 C   0  0  0  0  0  0  0  0  0  0  0  0
   -2.4176    1.1270    0.0000 C   0  0  0  0  0  0  0  0  0  0  0  0
   -2.0051    1.8414    0.0000 C   0  0  0  0  0  0  0  0  0  0  0  0
   -1.1801    1.8414    0.0000 C   0  0  0  0  0  0  0  0  0  0  0  0
   -0.7676    2.5559    0.0000 C   0  0  0  0  0  0  0  0  0  0  0  0
   -2.4176    2.5559    0.0000 O   0  0  0  0  0  0  0  0  0  0  0  0
   -2.0051    3.2704    0.0000 C   0  0  0  0  0  0  0  0  0  0  0  0
   -2.4176    3.9849    0.0000 C   0  0  0  0  0  0  0  0  0  0  0  0
   -2.8301    4.6993    0.0000 F   0  0  0  0  0  0  0  0  0  0  0  0
   -1.7031    4.3974    0.0000 F   0  0  0  0  0  0  0  0  0  0  0  0
   -3.1321    3.5724    0.0000 F   0  0  0  0  0  0  0  0  0  0  0  0
    0.0574   -0.3020    0.0000 O   0  0  0  0  0  0  0  0  0  0  0  0
  1  2  2  0  0  0  0
  2  3  1  0  0  0  0
  3  4  2  0  0  0  0
  4  5  1  0  0  0  0
  5  6  2  0  0  0  0
  1  6  1  0  0  0  0
  6  7  1  0  0  0  0
  7  8  1  0  0  0  0
  8  9  2  0  0  0  0
  5  9  1  0  0  0  0
  8 10  1  0  0  0  0
 10 11  1  0  0  0  0
 11 12  1  0  0  0  0
 12 13  2  0  0  0  0
 13 14  1  0  0  0  0
 14 15  2  0  0  0  0
 15 16  1  0  0  0  0
 16 17  2  0  0  0  0
 12 17  1  0  0  0  0
 17 18  1  0  0  0  0
 16 19  1  0  0  0  0
 19 20  1  0  0  0  0
 20 21  1  0  0  0  0
 21 22  1  0  0  0  0
 21 23  1  0  0  0  0
 21 24  1  0  0  0  0
 10 25  2  0  0  0  0
M  END
>  <Name>
Lansoprazole

>  <CAS>
103577-45-3

>  <Formula>
C16H14F3N3O2S

>  <MolWt>
369.36 

>  <Bioactivity>
Lansoprazole is a proton-pump inhibitor (PPI) which prevents the stomach from producing gastric acid.

>  <Pathways>
Membrane Transporter/Ion Channel

>  <Target>
Proton Pump inhibitor

>  <Receptor>
Proton Pump

>  <Reference>
1. Garnett WR, et al. Ann Pharmacother, 1996, 30(12), 1425-1436.

$$$$
549-18-8
  Mrv1561503291623562D          

 23 23  0  0  0  0            999 V2000
    0.4125    0.0000    0.0000 H   0  3  0  0  0  0  0  0  0  0  0  0
    2.9030    1.2237    0.0000 C   0  0  0  0  0  0  0  0  0  0  0  0
    3.6913    0.9806    0.0000 C   0  0  0  0  0  0  0  0  0  0  0  0
    4.2057    1.6256    0.0000 C   0  0  0  0  0  0  0  0  0  0  0  0
    5.0307    1.6256    0.0000 C   0  0  0  0  0  0  0  0  0  0  0  0
    5.5451    0.9806    0.0000 C   0  0  0  0  0  0  0  0  0  0  0  0
    6.3334    1.2237    0.0000 C   0  0  0  0  0  0  0  0  0  0  0  0
    6.9382    0.6626    0.0000 C   0  0  0  0  0  0  0  0  0  0  0  0
    6.7546   -0.1417    0.0000 C   0  0  0  0  0  0  0  0  0  0  0  0
    5.9663   -0.3849    0.0000 C   0  0  0  0  0  0  0  0  0  0  0  0
    5.3615    0.1763    0.0000 C   0  0  0  0  0  0  0  0  0  0  0  0
    4.6182   -0.1817    0.0000 C   0  0  0  0  0  0  0  0  0  0  0  0
    3.8749    0.1763    0.0000 C   0  0  0  0  0  0  0  0  0  0  0  0
    3.2701   -0.3849    0.0000 C   0  0  0  0  0  0  0  0  0  0  0  0
    2.4818   -0.1417    0.0000 C   0  0  0  0  0  0  0  0  0  0  0  0
    2.2982    0.6626    0.0000 C   0  0  0  0  0  0  0  0  0  0  0  0
    4.6182   -1.0067    0.0000 C   0  0  0  0  0  0  0  0  0  0  0  0
    5.3327   -1.4192    0.0000 C   0  0  0  0  0  0  0  0  0  0  0  0
    6.0472   -1.0067    0.0000 C   0  0  0  0  0  0  0  0  0  0  0  0
    6.7616   -1.4192    0.0000 N   0  0  0  0  0  0  0  0  0  0  0  0
    7.4761   -1.0067    0.0000 C   0  0  0  0  0  0  0  0  0  0  0  0
    6.7616   -2.2442    0.0000 C   0  0  0  0  0  0  0  0  0  0  0  0
   -0.4125    0.0000    0.0000 Cl  0  5  0  0  0  0  0  0  0  0  0  0
  2  3  2  0  0  0  0
  3  4  1  0  0  0  0
  4  5  1  0  0  0  0
  5  6  1  0  0  0  0
  6  7  2  0  0  0  0
  7  8  1  0  0  0  0
  8  9  2  0  0  0  0
  9 10  1  0  0  0  0
 10 11  2  0  0  0  0
  6 11  1  0  0  0  0
 11 12  1  0  0  0  0
 12 13  1  0  0  0  0
  3 13  1  0  0  0  0
 13 14  2  0  0  0  0
 14 15  1  0  0  0  0
 15 16  2  0  0  0  0
  2 16  1  0  0  0  0
 12 17  2  3  0  0  0
 17 18  1  0  0  0  0
 18 19  1  0  0  0  0
 19 20  1  0  0  0  0
 20 21  1  0  0  0  0
 20 22  1  0  0  0  0
M  CHG  2   1   1  23  -1
M  END
>  <Name>
Amitriptyline HCl

>  <CAS>
549-18-8

>  <Formula>
C20H24ClN

>  <MolWt>
313.86 

>  <Bioactivity>
Tricyclic antidepressant with anticholinergic and sedative properties. It appears to prevent the re-uptake of norepinephrine and serotonin at nerve terminals, thus potentiating the action of these neurotransmitters. Amitriptyline also appears to antagonize cholinergic and alpha-1 adrenergic responses to bioactive amines. 

>  <Pathways>
Neuroscience

>  <Target>
Noradrenaline uptake inhibitor;5-HT receptor antagonist;Potassium Channel;Serotonin uptake inhibitor;Opioid Receptor;Histamine antagonist;AChR antagonist;Adrenergic Receptor antagonist;NGFR,  BDNF/NT-3 GFR antagonist

>  <Receptor>
Sodium-dependent noradrenaline transporter;5-HT receptor;Potassium Channel ;Sodium-dependent serotonin transporter;Opioid Receptor;Histamine H1 receptor;Muscarinic AChR;Adrenergic receptor ;NGFR, BDNF/NT-3 GFR

>  <Reference>
1. Vaishnavi SN, et al. Biol Psychiatry. 2004 Feb 1;55(3):320-2.

$$$$
127-47-9
  Mrv1561503291623562D          

 24 24  0  0  0  0            999 V2000
    5.0013    6.1875    0.0000 C   0  0  0  0  0  0  0  0  0  0  0  0
    5.0013    7.0125    0.0000 O   0  0  0  0  0  0  0  0  0  0  0  0
    5.7158    7.4250    0.0000 C   0  0  0  0  0  0  0  0  0  0  0  0
    5.7158    8.2500    0.0000 O   0  0  0  0  0  0  0  0  0  0  0  0
    6.4302    7.0125    0.0000 C   0  0  0  0  0  0  0  0  0  0  0  0
    4.2868    5.7750    0.0000 C   0  0  0  0  0  0  0  0  0  0  0  0
    4.2868    4.9500    0.0000 C   0  0  0  0  0  0  0  0  0  0  0  0
    3.5724    4.5375    0.0000 C   0  0  0  0  0  0  0  0  0  0  0  0
    3.5724    3.7125    0.0000 C   0  0  0  0  0  0  0  0  0  0  0  0
    2.8579    3.3000    0.0000 C   0  0  0  0  0  0  0  0  0  0  0  0
    2.8579    2.4750    0.0000 C   0  0  0  0  0  0  0  0  0  0  0  0
    2.1434    2.0625    0.0000 C   0  0  0  0  0  0  0  0  0  0  0  0
    2.1434    1.2375    0.0000 C   0  0  0  0  0  0  0  0  0  0  0  0
    1.4289    0.8250    0.0000 C   0  0  0  0  0  0  0  0  0  0  0  0
    1.4289    0.0000    0.0000 C   0  0  0  0  0  0  0  0  0  0  0  0
    0.7145   -0.4125    0.0000 C   0  0  0  0  0  0  0  0  0  0  0  0
   -0.0000    0.0000    0.0000 C   0  0  0  0  0  0  0  0  0  0  0  0
   -0.0000    0.8250    0.0000 C   0  0  0  0  0  0  0  0  0  0  0  0
    0.7145    1.2375    0.0000 C   0  0  0  0  0  0  0  0  0  0  0  0
    0.3272    1.9659    0.0000 C   0  0  0  0  0  0  0  0  0  0  0  0
    1.1018    1.9659    0.0000 C   0  0  0  0  0  0  0  0  0  0  0  0
    2.1434   -0.4125    0.0000 C   0  0  0  0  0  0  0  0  0  0  0  0
    3.5724    2.0625    0.0000 C   0  0  0  0  0  0  0  0  0  0  0  0
    5.0013    4.5375    0.0000 C   0  0  0  0  0  0  0  0  0  0  0  0
  1  2  1  0  0  0  0
  2  3  1  0  0  0  0
  3  4  2  0  0  0  0
  3  5  1  0  0  0  0
  1  6  1  0  0  0  0
  6  7  2  0  0  0  0
  7  8  1  0  0  0  0
  8  9  2  0  0  0  0
  9 10  1  0  0  0  0
 10 11  2  0  0  0  0
 11 12  1  0  0  0  0
 12 13  2  0  0  0  0
 13 14  1  0  0  0  0
 14 15  2  0  0  0  0
 15 16  1  0  0  0  0
 16 17  1  0  0  0  0
 17 18  1  0  0  0  0
 18 19  1  0  0  0  0
 14 19  1  0  0  0  0
 19 20  1  0  0  0  0
 19 21  1  0  0  0  0
 15 22  1  0  0  0  0
 11 23  1  0  0  0  0
  7 24  1  0  0  0  0
M  END
>  <Name>
Retinyl acetate

>  <CAS>
127-47-9

>  <Formula>
C22H32O2

>  <MolWt>
328.50 

>  <Bioactivity>
Vitamin A is a group of unsaturated nutritional hydrocarbons, that includes retinol, retinal, retinoic acid, and several provitamin A carotenoids, among which beta-carotene is the most important.

>  <Pathways>
Vitamin

>  <Target>
VA

>  <Receptor>
VA

>  <Reference>
1. Stephensen CB, et al. Annu Rev Nutr, 2001, 21, 167-192.

$$$$
673-06-3
  Mrv1561503291623562D          

 12 12  0  0  1  0            999 V2000
   -0.0000    2.4750    0.0000 C   0  0  2  0  0  0  0  0  0  0  0  0
    0.7145    2.0625    0.0000 C   0  0  0  0  0  0  0  0  0  0  0  0
    0.7145    1.2375    0.0000 C   0  0  0  0  0  0  0  0  0  0  0  0
    1.4289    0.8250    0.0000 C   0  0  0  0  0  0  0  0  0  0  0  0
    1.4289    0.0000    0.0000 C   0  0  0  0  0  0  0  0  0  0  0  0
    0.7145   -0.4125    0.0000 C   0  0  0  0  0  0  0  0  0  0  0  0
    0.0000   -0.0000    0.0000 C   0  0  0  0  0  0  0  0  0  0  0  0
    0.0000    0.8250    0.0000 C   0  0  0  0  0  0  0  0  0  0  0  0
   -0.0000    3.3000    0.0000 C   0  0  0  0  0  0  0  0  0  0  0  0
   -0.7145    3.7125    0.0000 O   0  0  0  0  0  0  0  0  0  0  0  0
    0.7145    3.7125    0.0000 O   0  0  0  0  0  0  0  0  0  0  0  0
   -0.7145    2.0625    0.0000 N   0  0  0  0  0  0  0  0  0  0  0  0
  1  2  1  0  0  0  0
  2  3  1  0  0  0  0
  3  4  2  0  0  0  0
  4  5  1  0  0  0  0
  5  6  2  0  0  0  0
  6  7  1  0  0  0  0
  7  8  2  0  0  0  0
  3  8  1  0  0  0  0
  1  9  1  0  0  0  0
  9 10  1  0  0  0  0
  9 11  2  0  0  0  0
  1 12  1  1  0  0  0
M  END
>  <Name>
D-Phenylalanine

>  <CAS>
673-06-3

>  <Formula>
C9H11NO2

>  <MolWt>
165.19 

>  <Bioactivity>
An essential aromatic amino acid that is a precursor of melanin; dopamine; noradrenalin (norepinephrine), and thyroxine. 

>  <Pathways>
Amino Acids & Building Blocks

>  <Target>
Monocarboxylate transporter inhibitor

>  <Receptor>
Monocarboxylate transporter

>  <Reference>
1. Kim DK, et al. J Biol Chem. 2001 May 18;276(20):17221-8. 

$$$$
4065-45-6
  Mrv1561503291623562D          

 22 22  0  0  0  0            999 V2000
   -0.0000   -1.6500    0.0000 C   0  0  0  0  0  0  0  0  0  0  0  0
   -0.0000   -2.4750    0.0000 C   0  0  0  0  0  0  0  0  0  0  0  0
   -0.7145   -2.8875    0.0000 C   0  0  0  0  0  0  0  0  0  0  0  0
   -1.4289   -2.4750    0.0000 C   0  0  0  0  0  0  0  0  0  0  0  0
   -1.4289   -1.6500    0.0000 C   0  0  0  0  0  0  0  0  0  0  0  0
   -0.7145   -1.2375    0.0000 C   0  0  0  0  0  0  0  0  0  0  0  0
   -0.7145   -0.4125    0.0000 C   0  0  0  0  0  0  0  0  0  0  0  0
   -1.4289    0.0000    0.0000 C   0  0  0  0  0  0  0  0  0  0  0  0
   -2.1434   -0.4125    0.0000 C   0  0  0  0  0  0  0  0  0  0  0  0
   -2.8579    0.0000    0.0000 C   0  0  0  0  0  0  0  0  0  0  0  0
   -2.8579    0.8250    0.0000 C   0  0  0  0  0  0  0  0  0  0  0  0
   -2.1434    1.2375    0.0000 C   0  0  0  0  0  0  0  0  0  0  0  0
   -1.4289    0.8250    0.0000 C   0  0  0  0  0  0  0  0  0  0  0  0
    0.0000    0.0000    0.0000 O   0  0  0  0  0  0  0  0  0  0  0  0
   -2.1434   -1.2375    0.0000 O   0  0  0  0  0  0  0  0  0  0  0  0
   -0.7145   -3.7125    0.0000 O   0  0  0  0  0  0  0  0  0  0  0  0
   -0.0000   -4.1250    0.0000 C   0  0  0  0  0  0  0  0  0  0  0  0
    0.7145   -2.8875    0.0000 S   0  0  0  0  0  0  0  0  0  0  0  0
    0.3020   -3.6020    0.0000 O   0  0  0  0  0  0  0  0  0  0  0  0
    1.1270   -2.1730    0.0000 O   0  0  0  0  0  0  0  0  0  0  0  0
    1.4289   -3.3000    0.0000 O   0  5  0  0  0  0  0  0  0  0  0  0
    2.1434   -3.7125    0.0000 Na  0  3  0  0  0  0  0  0  0  0  0  0
  1  2  2  0  0  0  0
  2  3  1  0  0  0  0
  3  4  2  0  0  0  0
  4  5  1  0  0  0  0
  5  6  2  0  0  0  0
  1  6  1  0  0  0  0
  6  7  1  0  0  0  0
  7  8  1  0  0  0  0
  8  9  2  0  0  0  0
  9 10  1  0  0  0  0
 10 11  2  0  0  0  0
 11 12  1  0  0  0  0
 12 13  2  0  0  0  0
  8 13  1  0  0  0  0
  7 14  2  0  0  0  0
  5 15  1  0  0  0  0
  3 16  1  0  0  0  0
 16 17  1  0  0  0  0
  2 18  1  0  0  0  0
 18 19  2  0  0  0  0
 18 20  2  0  0  0  0
 18 21  1  0  0  0  0
M  CHG  2  21  -1  22   1
M  END
>  <Name>
Sulisobenzone

>  <CAS>
4065-45-6

>  <Formula>
C14H12O6S

>  <MolWt>
308.31 

>  <Bioactivity>
Sulisobenzone (benzophenone-4) is an ingredient in some sunscreens which protects the skin from damage by UVB and short-wave UVA ultraviolet light.

>  <Pathways>
Others

>  <Target>
Others

>  <Receptor>
Others

>  <Reference>
1. Nohynek GJ, Schaefer H. Regul Toxicol Pharmacol. 2001 Jun;33(3):285-99.

$$$$
70356-09-1
  Mrv1561503291623562D          

 23 24  0  0  0  0            999 V2000
   -0.7145   -2.8875    0.0000 C   0  0  0  0  0  0  0  0  0  0  0  0
   -0.7145   -3.7125    0.0000 C   0  0  0  0  0  0  0  0  0  0  0  0
   -1.4289   -4.1250    0.0000 C   0  0  0  0  0  0  0  0  0  0  0  0
   -2.1434   -3.7125    0.0000 C   0  0  0  0  0  0  0  0  0  0  0  0
   -2.1434   -2.8875    0.0000 C   0  0  0  0  0  0  0  0  0  0  0  0
   -1.4289   -2.4750    0.0000 C   0  0  0  0  0  0  0  0  0  0  0  0
   -1.4289   -1.6500    0.0000 C   0  0  0  0  0  0  0  0  0  0  0  0
   -2.1434   -1.2375    0.0000 C   0  0  0  0  0  0  0  0  0  0  0  0
   -2.1434   -0.4125    0.0000 C   0  0  0  0  0  0  0  0  0  0  0  0
   -2.8579    0.0000    0.0000 C   0  0  0  0  0  0  0  0  0  0  0  0
   -3.5724   -0.4125    0.0000 C   0  0  0  0  0  0  0  0  0  0  0  0
   -4.2868    0.0000    0.0000 C   0  0  0  0  0  0  0  0  0  0  0  0
   -4.2868    0.8250    0.0000 C   0  0  0  0  0  0  0  0  0  0  0  0
   -3.5724    1.2375    0.0000 C   0  0  0  0  0  0  0  0  0  0  0  0
   -2.8579    0.8250    0.0000 C   0  0  0  0  0  0  0  0  0  0  0  0
   -5.0013    1.2375    0.0000 O   0  0  0  0  0  0  0  0  0  0  0  0
   -5.0013    2.0625    0.0000 C   0  0  0  0  0  0  0  0  0  0  0  0
   -1.4289    0.0000    0.0000 O   0  0  0  0  0  0  0  0  0  0  0  0
   -0.7145   -1.2375    0.0000 O   0  0  0  0  0  0  0  0  0  0  0  0
   -1.4289   -4.9500    0.0000 C   0  0  0  0  0  0  0  0  0  0  0  0
   -1.4289   -5.7750    0.0000 C   0  0  0  0  0  0  0  0  0  0  0  0
   -2.2539   -4.9500    0.0000 C   0  0  0  0  0  0  0  0  0  0  0  0
   -0.6039   -4.9500    0.0000 C   0  0  0  0  0  0  0  0  0  0  0  0
  1  2  2  0  0  0  0
  2  3  1  0  0  0  0
  3  4  2  0  0  0  0
  4  5  1  0  0  0  0
  5  6  2  0  0  0  0
  1  6  1  0  0  0  0
  6  7  1  0  0  0  0
  7  8  1  0  0  0  0
  8  9  1  0  0  0  0
  9 10  1  0  0  0  0
 10 11  2  0  0  0  0
 11 12  1  0  0  0  0
 12 13  2  0  0  0  0
 13 14  1  0  0  0  0
 14 15  2  0  0  0  0
 10 15  1  0  0  0  0
 13 16  1  0  0  0  0
 16 17  1  0  0  0  0
  9 18  2  0  0  0  0
  7 19  2  0  0  0  0
  3 20  1  0  0  0  0
 20 21  1  0  0  0  0
 20 22  1  0  0  0  0
 20 23  1  0  0  0  0
M  END
>  <Name>
Avobenzone

>  <CAS>
70356-09-1

>  <Formula>
C20H22O3

>  <MolWt>
310.39 

>  <Bioactivity>
Avobenzone is an oil soluble ingredient used in sunscreen products to absorb the full spectrum of UVA rays and a dibenzoylmethane derivative.

>  <Pathways>
Others

>  <Target>
Others

>  <Receptor>
Others

>  <Reference>
1. Dunkelberger AD, et al. J Phys Chem A. 2015 Jun 2.

$$$$
57149-07-2
  Mrv1561503291623562D          

 29 32  0  0  0  0            999 V2000
    1.4289   -1.6500    0.0000 C   0  0  0  0  0  0  0  0  0  0  0  0
    0.7145   -1.2375    0.0000 C   0  0  0  0  0  0  0  0  0  0  0  0
    0.7145   -0.4125    0.0000 C   0  0  0  0  0  0  0  0  0  0  0  0
    1.4289   -0.0000    0.0000 C   0  0  0  0  0  0  0  0  0  0  0  0
    2.1434   -0.4125    0.0000 C   0  0  0  0  0  0  0  0  0  0  0  0
    2.8579   -0.0000    0.0000 C   0  0  0  0  0  0  0  0  0  0  0  0
    3.5724   -0.4125    0.0000 C   0  0  0  0  0  0  0  0  0  0  0  0
    3.5724   -1.2375    0.0000 C   0  0  0  0  0  0  0  0  0  0  0  0
    2.8579   -1.6500    0.0000 C   0  0  0  0  0  0  0  0  0  0  0  0
    2.1434   -1.2375    0.0000 C   0  0  0  0  0  0  0  0  0  0  0  0
    2.8579   -2.4750    0.0000 O   0  0  0  0  0  0  0  0  0  0  0  0
    3.5724   -2.8875    0.0000 C   0  0  0  0  0  0  0  0  0  0  0  0
    3.5724   -3.7125    0.0000 C   0  0  0  0  0  0  0  0  0  0  0  0
    4.2868   -4.1250    0.0000 C   0  0  0  0  0  0  0  0  0  0  0  0
    4.2868   -4.9500    0.0000 N   0  0  0  0  0  0  0  0  0  0  0  0
    5.0013   -5.3625    0.0000 C   0  0  0  0  0  0  0  0  0  0  0  0
    5.0013   -6.1875    0.0000 C   0  0  0  0  0  0  0  0  0  0  0  0
    4.2868   -6.6000    0.0000 N   0  0  0  0  0  0  0  0  0  0  0  0
    4.2868   -7.4250    0.0000 C   0  0  0  0  0  0  0  0  0  0  0  0
    5.0013   -7.8375    0.0000 C   0  0  0  0  0  0  0  0  0  0  0  0
    5.0013   -8.6625    0.0000 C   0  0  0  0  0  0  0  0  0  0  0  0
    4.2868   -9.0750    0.0000 C   0  0  0  0  0  0  0  0  0  0  0  0
    3.5724   -8.6625    0.0000 C   0  0  0  0  0  0  0  0  0  0  0  0
    3.5724   -7.8375    0.0000 C   0  0  0  0  0  0  0  0  0  0  0  0
    5.7158   -7.4250    0.0000 O   0  0  0  0  0  0  0  0  0  0  0  0
    6.4302   -7.8375    0.0000 C   0  0  0  0  0  0  0  0  0  0  0  0
    3.5724   -6.1875    0.0000 C   0  0  0  0  0  0  0  0  0  0  0  0
    3.5724   -5.3625    0.0000 C   0  0  0  0  0  0  0  0  0  0  0  0
    2.8579   -4.1250    0.0000 O   0  0  0  0  0  0  0  0  0  0  0  0
  1  2  2  0  0  0  0
  2  3  1  0  0  0  0
  3  4  2  0  0  0  0
  4  5  1  0  0  0  0
  5  6  2  0  0  0  0
  6  7  1  0  0  0  0
  7  8  2  0  0  0  0
  8  9  1  0  0  0  0
  9 10  2  0  0  0  0
  1 10  1  0  0  0  0
  5 10  1  0  0  0  0
  9 11  1  0  0  0  0
 11 12  1  0  0  0  0
 12 13  1  0  0  0  0
 13 14  1  0  0  0  0
 14 15  1  0  0  0  0
 15 16  1  0  0  0  0
 16 17  1  0  0  0  0
 17 18  1  0  0  0  0
 18 19  1  0  0  0  0
 19 20  2  0  0  0  0
 20 21  1  0  0  0  0
 21 22  2  0  0  0  0
 22 23  1  0  0  0  0
 23 24  2  0  0  0  0
 19 24  1  0  0  0  0
 20 25  1  0  0  0  0
 25 26  1  0  0  0  0
 18 27  1  0  0  0  0
 27 28  1  0  0  0  0
 15 28  1  0  0  0  0
 13 29  1  0  0  0  0
M  END
>  <Name>
Naftopidil 2HCl

>  <CAS>
57149-07-2

>  <Formula>
C24H28N2O3

>  <MolWt>
392.49 

>  <Bioactivity>
Naftopidil (INN, marketed under the brand name Flivas) is an antihypertensive drug which acts as a selective ?1-adrenergic receptor antagonist or alpha blocker.

>  <Pathways>
GPCR/G Protein

>  <Target>
Adrenergic Receptor antagonist

>  <Receptor>
Adrenergic Receptor

>  <Reference>
1. Sakai H, et al. Hinyokika Kiyo. 2011 Jan;57(1):7-13.

$$$$
T0712
  Mrv1561503291623562D          

 25 23  0  0  0  0            999 V2000
    0.4125    0.0000    0.0000 H   0  3  0  0  0  0  0  0  0  0  0  0
    5.6275    0.4842    0.0000 C   0  0  0  0  0  0  0  0  0  0  0  0
    5.6275   -0.3408    0.0000 C   0  0  0  0  0  0  0  0  0  0  0  0
    6.3420   -0.7533    0.0000 C   0  0  0  0  0  0  0  0  0  0  0  0
    6.3420   -1.5783    0.0000 O   0  0  0  0  0  0  0  0  0  0  0  0
    7.0565   -0.3408    0.0000 C   0  0  0  0  0  0  0  0  0  0  0  0
    7.7709   -0.7533    0.0000 N   0  0  0  0  0  0  0  0  0  0  0  0
    8.4854   -0.3408    0.0000 C   0  0  0  0  0  0  0  0  0  0  0  0
    9.1999   -0.7533    0.0000 C   0  0  0  0  0  0  0  0  0  0  0  0
    9.9144   -0.3408    0.0000 C   0  0  0  0  0  0  0  0  0  0  0  0
   10.6288   -0.7533    0.0000 C   0  0  0  0  0  0  0  0  0  0  0  0
   11.3433   -0.3408    0.0000 C   0  0  0  0  0  0  0  0  0  0  0  0
   12.0578   -0.7533    0.0000 C   0  0  0  0  0  0  0  0  0  0  0  0
   12.7722   -0.3408    0.0000 C   0  0  0  0  0  0  0  0  0  0  0  0
   13.4867   -0.7533    0.0000 C   0  0  0  0  0  0  0  0  0  0  0  0
    7.0565    0.4842    0.0000 C   0  0  0  0  0  0  0  0  0  0  0  0
    4.9131   -0.7533    0.0000 C   0  0  0  0  0  0  0  0  0  0  0  0
    4.1986   -0.3408    0.0000 C   0  0  0  0  0  0  0  0  0  0  0  0
    4.1986    0.4842    0.0000 C   0  0  0  0  0  0  0  0  0  0  0  0
    4.9131    0.8967    0.0000 C   0  0  0  0  0  0  0  0  0  0  0  0
    3.4841    0.8967    0.0000 S   0  0  0  0  0  0  0  0  0  0  0  0
    3.4841    1.7217    0.0000 C   0  0  0  0  0  0  0  0  0  0  0  0
    2.7696    2.1342    0.0000 C   0  0  0  0  0  0  0  0  0  0  0  0
    4.1986    2.1342    0.0000 C   0  0  0  0  0  0  0  0  0  0  0  0
   -0.4125    0.0000    0.0000 Cl  0  5  0  0  0  0  0  0  0  0  0  0
  2  3  2  0  0  0  0
  3  4  1  0  0  0  0
  4  5  1  0  0  0  0
  4  6  1  0  0  0  0
  6  7  1  0  0  0  0
  7  8  1  0  0  0  0
  8  9  1  0  0  0  0
  9 10  1  0  0  0  0
 10 11  1  0  0  0  0
 11 12  1  0  0  0  0
 12 13  1  0  0  0  0
 13 14  1  0  0  0  0
 14 15  1  0  0  0  0
  6 16  1  0  0  0  0
  3 17  1  0  0  0  0
 17 18  2  0  0  0  0
 18 19  1  0  0  0  0
 19 20  2  0  0  0  0
  2 20  1  0  0  0  0
 19 21  1  0  0  0  0
 21 22  1  0  0  0  0
 22 23  1  0  0  0  0
 22 24  1  0  0  0  0
M  CHG  2   1   1  25  -1
M  END
>  <Name>
Suloctidil

>  <CAS>
54767-75-8

>  <Formula>
C20H35NOS

>  <MolWt>
337.56 

>  <Bioactivity>
A peripheral vasodilator that was formerly used in the management of peripheral and cerebral vascular disorders. It is hepatotoxic and fatalities have occurred. (From Martindale, The Extra Pharmacopoeia, 30th ed, p1312)

>  <Pathways>
Angiogenesis

>  <Target>
Antiplatelet aggregation inhibitor

>  <Receptor>
Antiplatelet-aggregation

>  <Reference>
1. Ishibashi A, et al. Nihon Yakurigaku Zasshi. 1983 Nov;82(5):361-73.

$$$$
1188-38-1
  Mrv1561503291623562D          

 13 12  0  0  1  0            999 V2000
    3.1895    1.8414    0.0000 C   0  0  1  0  0  0  0  0  0  0  0  0
    3.1895    2.6664    0.0000 C   0  0  0  0  0  0  0  0  0  0  0  0
    3.9039    3.0789    0.0000 O   0  0  0  0  0  0  0  0  0  0  0  0
    2.4750    3.0789    0.0000 O   0  0  0  0  0  0  0  0  0  0  0  0
    2.4750    1.4289    0.0000 N   0  0  0  0  0  0  0  0  0  0  0  0
    1.7605    1.8414    0.0000 C   0  0  0  0  0  0  0  0  0  0  0  0
    1.0461    1.4289    0.0000 O   0  0  0  0  0  0  0  0  0  0  0  0
    1.7605    2.6664    0.0000 N   0  0  0  0  0  0  0  0  0  0  0  0
    3.9039    1.4289    0.0000 C   0  0  0  0  0  0  0  0  0  0  0  0
    4.6184    1.8414    0.0000 C   0  0  0  0  0  0  0  0  0  0  0  0
    5.3329    1.4289    0.0000 C   0  0  0  0  0  0  0  0  0  0  0  0
    6.0474    1.8414    0.0000 O   0  0  0  0  0  0  0  0  0  0  0  0
    5.3329    0.6039    0.0000 O   0  0  0  0  0  0  0  0  0  0  0  0
  1  2  1  0  0  0  0
  2  3  2  0  0  0  0
  2  4  1  0  0  0  0
  1  5  1  6  0  0  0
  5  6  1  0  0  0  0
  6  7  2  0  0  0  0
  6  8  1  0  0  0  0
  1  9  1  0  0  0  0
  9 10  1  0  0  0  0
 10 11  1  0  0  0  0
 11 12  2  0  0  0  0
 11 13  1  0  0  0  0
M  END
>  <Name>
Carbaglu

>  <CAS>
1188-38-1

>  <Formula>
C6H10N2O5

>  <MolWt>
190.15 

>  <Bioactivity>
Carglumic acid is an orphan drug used for the treatment of hyperammonaemia in patients with N-acetylglutamate synthase deficiency. This rare genetic disorder results in elevated blood levels of ammonia, which can eventually cross the blood-brain barrier and cause neurologic problems, cerebral edema, coma, and death. Carglumic acid was approved by the U.S. Food and Drug Administration (FDA) on 18 March 2010.


>  <Pathways>
Amino Acids & Building Blocks

>  <Target>
Amino Acids and Derivatives

>  <Receptor>
Carbamoyl-phosphate synthase

>  <Reference>
1. Carglumic acid. Prescrire Int. 2008 Apr;17(94):50-1.

$$$$
73590-58-6
  Mrv1561503291623562D          

 24 26  0  0  0  0            999 V2000
    3.2789    1.2375    0.0000 C   0  0  0  0  0  0  0  0  0  0  0  0
    3.9934    0.8250    0.0000 C   0  0  0  0  0  0  0  0  0  0  0  0
    4.7079    1.2375    0.0000 O   0  0  0  0  0  0  0  0  0  0  0  0
    5.4223    0.8250    0.0000 C   0  0  0  0  0  0  0  0  0  0  0  0
    3.9934    0.0000    0.0000 C   0  0  0  0  0  0  0  0  0  0  0  0
    3.2789   -0.4125    0.0000 C   0  0  0  0  0  0  0  0  0  0  0  0
    2.5645   -0.0000    0.0000 C   0  0  0  0  0  0  0  0  0  0  0  0
    2.5645    0.8250    0.0000 C   0  0  0  0  0  0  0  0  0  0  0  0
    1.7798    1.0799    0.0000 N   0  0  0  0  0  0  0  0  0  0  0  0
    1.2949    0.4125    0.0000 C   0  0  0  0  0  0  0  0  0  0  0  0
    1.7798   -0.2549    0.0000 N   0  0  0  0  0  0  0  0  0  0  0  0
    0.4699    0.4125    0.0000 S   0  0  0  0  0  0  0  0  0  0  0  0
    0.0574   -0.3020    0.0000 C   0  0  0  0  0  0  0  0  0  0  0  0
   -0.7676   -0.3020    0.0000 C   0  0  0  0  0  0  0  0  0  0  0  0
   -1.1801   -1.0164    0.0000 C   0  0  0  0  0  0  0  0  0  0  0  0
   -2.0051   -1.0164    0.0000 C   0  0  0  0  0  0  0  0  0  0  0  0
   -2.4176   -0.3020    0.0000 C   0  0  0  0  0  0  0  0  0  0  0  0
   -3.2426   -0.3020    0.0000 C   0  0  0  0  0  0  0  0  0  0  0  0
   -2.0051    0.4125    0.0000 C   0  0  0  0  0  0  0  0  0  0  0  0
   -1.1801    0.4125    0.0000 N   0  0  0  0  0  0  0  0  0  0  0  0
   -2.4176   -1.7309    0.0000 O   0  0  0  0  0  0  0  0  0  0  0  0
   -3.2426   -1.7309    0.0000 C   0  0  0  0  0  0  0  0  0  0  0  0
   -0.7676   -1.7309    0.0000 C   0  0  0  0  0  0  0  0  0  0  0  0
    0.0574    1.1270    0.0000 O   0  0  0  0  0  0  0  0  0  0  0  0
  1  2  2  0  0  0  0
  2  3  1  0  0  0  0
  3  4  1  0  0  0  0
  2  5  1  0  0  0  0
  5  6  2  0  0  0  0
  6  7  1  0  0  0  0
  7  8  2  0  0  0  0
  1  8  1  0  0  0  0
  8  9  1  0  0  0  0
  9 10  1  0  0  0  0
 10 11  2  0  0  0  0
  7 11  1  0  0  0  0
 10 12  1  0  0  0  0
 12 13  1  0  0  0  0
 13 14  1  0  0  0  0
 14 15  2  0  0  0  0
 15 16  1  0  0  0  0
 16 17  2  0  0  0  0
 17 18  1  0  0  0  0
 17 19  1  0  0  0  0
 19 20  2  0  0  0  0
 14 20  1  0  0  0  0
 16 21  1  0  0  0  0
 21 22  1  0  0  0  0
 15 23  1  0  0  0  0
 12 24  2  0  0  0  0
M  END
>  <Name>
Omeprazole

>  <CAS>
73590-58-6

>  <Formula>
C17H19N3O3S

>  <MolWt>
345.42 

>  <Bioactivity>
Omeprazole is a proton pump inhibitor, used to treat dyspepsia, peptic ulcer disease, gastroesophageal reflux disease, laryngopharyngeal reflux, and Zollinger–Ellison syndrome.

>  <Pathways>
Membrane Transporter/Ion Channel; Ubiquitination

>  <Target>
Proton Pump inhibitor; Autophagy activator

>  <Receptor>
Proton Pump ;Autophagy

>  <Reference>
1. Dzeletovic N, et al. J Biol Chem, 1997, 272(19), 12705-12713.

$$$$
71125-38-7
  Mrv1561503291623562D          

 23 25  0  0  0  0            999 V2000
    1.4289   -0.0000    0.0000 C   0  0  0  0  0  0  0  0  0  0  0  0
    2.1434   -0.4125    0.0000 C   0  0  0  0  0  0  0  0  0  0  0  0
    2.8579   -0.0000    0.0000 S   0  0  0  0  0  0  0  0  0  0  0  0
    2.3276    0.6320    0.0000 O   0  0  0  0  0  0  0  0  0  0  0  0
    3.3882    0.6320    0.0000 O   0  0  0  0  0  0  0  0  0  0  0  0
    3.5724   -0.4125    0.0000 N   0  0  0  0  0  0  0  0  0  0  0  0
    3.5724   -1.2375    0.0000 C   0  0  0  0  0  0  0  0  0  0  0  0
    2.8579   -1.6500    0.0000 C   0  0  0  0  0  0  0  0  0  0  0  0
    2.8579   -2.4750    0.0000 O   0  0  0  0  0  0  0  0  0  0  0  0
    2.1434   -1.2375    0.0000 C   0  0  0  0  0  0  0  0  0  0  0  0
    1.4289   -1.6500    0.0000 C   0  0  0  0  0  0  0  0  0  0  0  0
    0.7145   -1.2375    0.0000 C   0  0  0  0  0  0  0  0  0  0  0  0
    0.7145   -0.4125    0.0000 C   0  0  0  0  0  0  0  0  0  0  0  0
    4.2868   -1.6500    0.0000 C   0  0  0  0  0  0  0  0  0  0  0  0
    4.2868   -2.4750    0.0000 O   0  0  0  0  0  0  0  0  0  0  0  0
    5.0013   -1.2375    0.0000 N   0  0  0  0  0  0  0  0  0  0  0  0
    5.7158   -1.6500    0.0000 C   0  0  0  0  0  0  0  0  0  0  0  0
    5.8020   -2.4705    0.0000 N   0  0  0  0  0  0  0  0  0  0  0  0
    6.6090   -2.6420    0.0000 C   0  0  0  0  0  0  0  0  0  0  0  0
    7.0215   -1.9275    0.0000 C   0  0  0  0  0  0  0  0  0  0  0  0
    6.4694   -1.3144    0.0000 S   0  0  0  0  0  0  0  0  0  0  0  0
    7.8420   -1.8413    0.0000 C   0  0  0  0  0  0  0  0  0  0  0  0
    4.2868   -0.0000    0.0000 C   0  0  0  0  0  0  0  0  0  0  0  0
  1  2  2  0  0  0  0
  2  3  1  0  0  0  0
  3  4  2  0  0  0  0
  3  5  2  0  0  0  0
  3  6  1  0  0  0  0
  6  7  1  0  0  0  0
  7  8  1  0  0  0  0
  8  9  2  0  0  0  0
  8 10  1  0  0  0  0
  2 10  1  0  0  0  0
 10 11  2  0  0  0  0
 11 12  1  0  0  0  0
 12 13  2  0  0  0  0
  1 13  1  0  0  0  0
  7 14  2  0  0  0  0
 14 15  1  0  0  0  0
 14 16  1  0  0  0  0
 16 17  1  0  0  0  0
 17 18  2  0  0  0  0
 18 19  1  0  0  0  0
 19 20  2  0  0  0  0
 20 21  1  0  0  0  0
 17 21  1  0  0  0  0
 20 22  1  0  0  0  0
  6 23  1  0  0  0  0
M  END
>  <Name>
Meloxicam

>  <CAS>
71125-38-7

>  <Formula>
C14H13N3O4S2

>  <MolWt>
351.40 

>  <Bioactivity>
Meloxicam is a nonsteroidal anti-inflammatory drug (NSAID) used to relieve the symptoms of arthritis (juvenile rheumatoid arthritis, osteoarthritis, and rheumatoid arthritis), such as inflammation, swelling, stiffness, and joint pain. However, this medicine does not cure arthritis and will only help you as long as you continue to take it. 

>  <Pathways>
Neuroscience

>  <Target>
COX inhibitor

>  <Receptor>
Prostaglandin G/H synthase

>  <Reference>
1. Poulsen Nautrup B, et al. Dtsch Tierarztl Wochenschr. 1999 Mar;106(3):94-100.

$$$$
2139-47-1
  Mrv1561503291623562D          

 23 25  0  0  0  0            999 V2000
    0.7145   -1.2375    0.0000 C   0  0  0  0  0  0  0  0  0  0  0  0
   -0.0000   -1.6500    0.0000 C   0  0  0  0  0  0  0  0  0  0  0  0
   -0.0000   -2.4750    0.0000 N   0  0  0  0  0  0  0  0  0  0  0  0
    0.6674   -2.9599    0.0000 C   0  0  0  0  0  0  0  0  0  0  0  0
    0.4125   -3.7445    0.0000 C   0  0  0  0  0  0  0  0  0  0  0  0
   -0.4125   -3.7445    0.0000 C   0  0  0  0  0  0  0  0  0  0  0  0
   -0.6674   -2.9599    0.0000 N   0  0  0  0  0  0  0  0  0  0  0  0
   -1.4521   -2.7050    0.0000 C   0  0  0  0  0  0  0  0  0  0  0  0
   -0.8974   -4.4120    0.0000 C   0  0  0  0  0  0  0  0  0  0  0  0
    0.8974   -4.4120    0.0000 N   0  0  0  0  0  0  0  0  0  0  0  0
    0.5619   -5.1657    0.0000 C   0  0  0  0  0  0  0  0  0  0  0  0
    1.0468   -5.8331    0.0000 C   0  0  0  0  0  0  0  0  0  0  0  0
    1.8673   -5.7469    0.0000 C   0  0  0  0  0  0  0  0  0  0  0  0
    2.3522   -6.4143    0.0000 N   0  0  0  0  0  0  0  0  0  0  0  0
    2.0166   -7.1680    0.0000 C   0  0  0  0  0  0  0  0  0  0  0  0
    1.1962   -7.2542    0.0000 C   0  0  0  0  0  0  0  0  0  0  0  0
    0.7112   -6.5868    0.0000 C   0  0  0  0  0  0  0  0  0  0  0  0
   -0.2586   -5.2519    0.0000 O   0  0  0  0  0  0  0  0  0  0  0  0
    1.4521   -2.7050    0.0000 O   0  0  0  0  0  0  0  0  0  0  0  0
   -0.7145   -1.2375    0.0000 C   0  0  0  0  0  0  0  0  0  0  0  0
   -0.7145   -0.4125    0.0000 C   0  0  0  0  0  0  0  0  0  0  0  0
   -0.0000    0.0000    0.0000 C   0  0  0  0  0  0  0  0  0  0  0  0
    0.7145   -0.4125    0.0000 C   0  0  0  0  0  0  0  0  0  0  0  0
  1  2  2  0  0  0  0
  2  3  1  0  0  0  0
  3  4  1  0  0  0  0
  4  5  1  0  0  0  0
  5  6  2  0  0  0  0
  6  7  1  0  0  0  0
  3  7  1  0  0  0  0
  7  8  1  0  0  0  0
  6  9  1  0  0  0  0
  5 10  1  0  0  0  0
 10 11  1  0  0  0  0
 11 12  1  0  0  0  0
 12 13  2  0  0  0  0
 13 14  1  0  0  0  0
 14 15  2  0  0  0  0
 15 16  1  0  0  0  0
 16 17  2  0  0  0  0
 12 17  1  0  0  0  0
 11 18  2  0  0  0  0
  4 19  2  0  0  0  0
  2 20  1  0  0  0  0
 20 21  2  0  0  0  0
 21 22  1  0  0  0  0
 22 23  2  0  0  0  0
  1 23  1  0  0  0  0
M  END
>  <Name>
Niapyrin

>  <CAS>
2139-47-1

>  <Formula>
C17H16N4O2

>  <MolWt>
308.34 

>  <Bioactivity>
Nifenazone is a drug that has been used as an analgesic for a number of rheumatic conditions

>  <Pathways>
Neuroscience

>  <Target>
COX inhibitor

>  <Receptor>
Prostaglandin G/H synthase

>  <Reference>
1. Bani-Yaseen AD, Al-Balawi M. Phys Chem Chem Phys. 2014 Aug 7;16(29):15519-26. 

$$$$
T1008
  Mrv1561503291623562D          

 27 26  0  0  1  0            999 V2000
    1.3406    0.2738    0.0000 C   0  0  0  0  0  0  0  0  0  0  0  0
    2.0551    0.6863    0.0000 S   0  0  0  0  0  0  0  0  0  0  0  0
    2.7696    0.2738    0.0000 C   0  0  0  0  0  0  0  0  0  0  0  0
    2.7696   -0.5512    0.0000 C   0  0  0  0  0  0  0  0  0  0  0  0
    2.0551   -0.9637    0.0000 C   0  0  0  0  0  0  0  0  0  0  0  0
    1.3406   -0.5512    0.0000 N   0  0  0  0  0  0  0  0  0  0  0  0
    0.5156   -0.5512    0.0000 C   0  0  0  0  0  0  0  0  0  0  0  0
   -0.0677   -1.1345    0.0000 O   0  0  0  0  0  0  0  0  0  0  0  0
    0.5156    0.2738    0.0000 C   0  0  0  0  0  0  0  0  0  0  0  0
   -0.0677    0.8572    0.0000 N   0  0  0  0  0  0  0  0  0  0  0  0
   -0.8646    0.6437    0.0000 C   0  0  0  0  0  0  0  0  0  0  0  0
   -1.0781   -0.1532    0.0000 O   0  0  0  0  0  0  0  0  0  0  0  0
   -1.4480    1.2270    0.0000 C   0  0  0  0  0  0  0  0  0  0  0  0
   -1.2345    2.0239    0.0000 N   0  0  0  0  0  0  0  0  0  0  0  0
   -2.2449    1.0135    0.0000 C   0  0  0  0  0  0  0  0  0  0  0  0
   -2.4584    0.2166    0.0000 C   0  0  0  0  0  0  0  0  0  0  0  0
   -3.2553    0.0031    0.0000 C   0  0  0  0  0  0  0  0  0  0  0  0
   -3.8386    0.5865    0.0000 C   0  0  0  0  0  0  0  0  0  0  0  0
   -3.6251    1.3833    0.0000 C   0  0  0  0  0  0  0  0  0  0  0  0
   -2.8282    1.5969    0.0000 C   0  0  0  0  0  0  0  0  0  0  0  0
    2.0551   -1.7887    0.0000 C   0  0  0  0  0  0  0  0  0  0  0  0
    2.7696   -2.2012    0.0000 O   0  0  0  0  0  0  0  0  0  0  0  0
    1.3406   -2.2012    0.0000 O   0  0  0  0  0  0  0  0  0  0  0  0
    3.4840   -0.9637    0.0000 C   0  0  0  0  0  0  0  0  0  0  0  0
    6.6662    0.0000    0.0000 H   0  3  0  0  0  0  0  0  0  0  0  0
    5.8412    0.0000    0.0000 Cl  0  5  0  0  0  0  0  0  0  0  0  0
    0.0000   -3.8512    0.0000 O   0  0  0  0  0  0  0  0  0  0  0  0
  1  2  1  0  0  0  0
  2  3  1  0  0  0  0
  3  4  1  0  0  0  0
  4  5  2  0  0  0  0
  5  6  1  0  0  0  0
  1  6  1  0  0  0  0
  6  7  1  0  0  0  0
  7  8  2  0  0  0  0
  7  9  1  0  0  0  0
  1  9  1  0  0  0  0
  9 10  1  0  0  0  0
 10 11  1  0  0  0  0
 11 12  2  0  0  0  0
 11 13  1  0  0  0  0
 13 14  1  0  0  0  0
 13 15  1  0  0  0  0
 15 16  2  0  0  0  0
 16 17  1  0  0  0  0
 17 18  2  0  0  0  0
 18 19  1  0  0  0  0
 19 20  2  0  0  0  0
 15 20  1  0  0  0  0
  5 21  1  0  0  0  0
 21 22  1  0  0  0  0
 21 23  2  0  0  0  0
  4 24  1  0  0  0  0
M  CHG  2  25   1  26  -1
M  END
>  <Name>
Cephalexin

>  <CAS>
15686-71-2

>  <Formula>
C16H17N3O4S

>  <MolWt>
347.39 

>  <Bioactivity>
A semisynthetic cephalosporin antibiotic with antimicrobial activity similar to that of CEPHALORIDINE or CEPHALOTHIN, but somewhat less potent. It is effective against both gram-positive and gram-negative organisms.


>  <Pathways>
Microbiology & Virology

>  <Target>
Antibacterial

>  <Receptor>
PBPs

>  <Reference>
1. Williamson R, et al. Antimicrob Agents Chemother. 1980 Oct;18(4):629-37.

$$$$
T1078
  Mrv1561503291623562D          

 21 22  0  0  0  0            999 V2000
    2.8579   -2.4750    0.0000 C   0  0  0  0  0  0  0  0  0  0  0  0
    2.8579   -3.3000    0.0000 C   0  0  0  0  0  0  0  0  0  0  0  0
    2.1434   -3.7125    0.0000 N   0  0  0  0  0  0  0  0  0  0  0  0
    1.4289   -3.3000    0.0000 C   0  0  0  0  0  0  0  0  0  0  0  0
    1.4289   -2.4750    0.0000 N   0  0  0  0  0  0  0  0  0  0  0  0
    2.1434   -2.0625    0.0000 C   0  0  0  0  0  0  0  0  0  0  0  0
    2.1434   -1.2375    0.0000 N   0  0  0  0  0  0  0  0  0  0  0  0
    2.8579   -0.8250    0.0000 S   0  0  0  0  0  0  0  0  0  0  0  0
    3.5724   -0.4125    0.0000 C   0  0  0  0  0  0  0  0  0  0  0  0
    3.5724    0.4125    0.0000 C   0  0  0  0  0  0  0  0  0  0  0  0
    4.2868    0.8250    0.0000 C   0  0  0  0  0  0  0  0  0  0  0  0
    5.0013    0.4125    0.0000 C   0  0  0  0  0  0  0  0  0  0  0  0
    5.7158    0.8250    0.0000 N   0  0  0  0  0  0  0  0  0  0  0  0
    5.0013   -0.4125    0.0000 C   0  0  0  0  0  0  0  0  0  0  0  0
    4.2868   -0.8250    0.0000 C   0  0  0  0  0  0  0  0  0  0  0  0
    2.4454   -0.1105    0.0000 O   0  0  0  0  0  0  0  0  0  0  0  0
    3.2704   -1.5395    0.0000 O   0  0  0  0  0  0  0  0  0  0  0  0
    0.7145   -3.7125    0.0000 O   0  0  0  0  0  0  0  0  0  0  0  0
    0.7145   -4.5375    0.0000 C   0  0  0  0  0  0  0  0  0  0  0  0
    3.5724   -3.7125    0.0000 O   0  0  0  0  0  0  0  0  0  0  0  0
    3.5724   -4.5375    0.0000 C   0  0  0  0  0  0  0  0  0  0  0  0
  1  2  2  0  0  0  0
  2  3  1  0  0  0  0
  3  4  2  0  0  0  0
  4  5  1  0  0  0  0
  5  6  2  0  0  0  0
  1  6  1  0  0  0  0
  6  7  1  0  0  0  0
  7  8  1  0  0  0  0
  8  9  1  0  0  0  0
  9 10  2  0  0  0  0
 10 11  1  0  0  0  0
 11 12  2  0  0  0  0
 12 13  1  0  0  0  0
 12 14  1  0  0  0  0
 14 15  2  0  0  0  0
  9 15  1  0  0  0  0
  8 16  2  0  0  0  0
  8 17  2  0  0  0  0
  4 18  1  0  0  0  0
 18 19  1  0  0  0  0
  2 20  1  0  0  0  0
 20 21  1  0  0  0  0
M  END
>  <Name>
Sulfadimethoxine

>  <CAS>
122-11-2

>  <Formula>
C12H14N4O4S

>  <MolWt>
310.33 

>  <Bioactivity>
A sulfanilamide that is used as an anti-infective agent.


>  <Pathways>
Microbiology & Virology

>  <Target>
Antibiotic

>  <Receptor>
Others

>  <Reference>
1. Song KM, et al. Biosens Bioelectron. 2012 Mar 15;33(1):113-9. 

$$$$
443-48-1
  Mrv1561503291623562D          

 12 12  0  0  0  0            999 V2000
    0.9803   -0.1553    0.0000 C   0  0  0  0  0  0  0  0  0  0  0  0
    0.1553   -0.1553    0.0000 C   0  0  0  0  0  0  0  0  0  0  0  0
   -0.0997    0.6294    0.0000 N   0  0  0  0  0  0  0  0  0  0  0  0
    0.5678    1.1143    0.0000 C   0  0  0  0  0  0  0  0  0  0  0  0
    1.2352    0.6294    0.0000 N   0  0  0  0  0  0  0  0  0  0  0  0
    0.5678    1.9393    0.0000 C   0  0  0  0  0  0  0  0  0  0  0  0
   -0.8843    0.8843    0.0000 C   0  0  0  0  0  0  0  0  0  0  0  0
   -1.0558    1.6913    0.0000 C   0  0  0  0  0  0  0  0  0  0  0  0
   -1.8405    1.9462    0.0000 O   0  0  0  0  0  0  0  0  0  0  0  0
   -0.3297   -0.8227    0.0000 N   0  3  0  0  0  0  0  0  0  0  0  0
    0.0059   -1.5764    0.0000 O   0  0  0  0  0  0  0  0  0  0  0  0
   -1.1501   -0.7365    0.0000 O   0  5  0  0  0  0  0  0  0  0  0  0
  1  2  2  0  0  0  0
  2  3  1  0  0  0  0
  3  4  1  0  0  0  0
  4  5  2  0  0  0  0
  1  5  1  0  0  0  0
  4  6  1  0  0  0  0
  3  7  1  0  0  0  0
  7  8  1  0  0  0  0
  8  9  1  0  0  0  0
  2 10  1  0  0  0  0
 10 11  2  0  0  0  0
 10 12  1  0  0  0  0
M  CHG  2  10   1  12  -1
M  END
>  <Name>
Metronidazole

>  <CAS>
443-48-1

>  <Formula>
C6H9N3O3

>  <MolWt>
171.16 

>  <Bioactivity>
A nitroimidazole used to treat AMEBIASIS; VAGINITIS; TRICHOMONAS INFECTIONS; GIARDIASIS; ANAEROBIC BACTERIA; and TREPONEMAL INFECTIONS. It has also been proposed as a radiation sensitizer for hypoxic cells. According to the Fourth Annual Report on Carcinogens (NTP 85-002, 1985, p133), this substance may reasonably be anticipated to be a carcinogen (Merck, 11th ed).


>  <Pathways>
Metabolism; Microbiology & Virology

>  <Target>
Hydrogenase inhibitor; Antibiotic

>  <Receptor>
Fe hydrogenase 1;NADPH nitroreductase;14-? Demethylase

>  <Reference>
1. Sisson G, et al. J Bacteriol. 2000 Sep;182(18):5091-6.

$$$$
51-15-0
  Mrv1561503291623562D          

 11 10  0  0  0  0            999 V2000
   -0.6430    1.2787    0.0000 C   0  0  0  0  0  0  0  0  0  0  0  0
   -0.6430    0.4537    0.0000 N   0  0  0  0  0  0  0  0  0  0  0  0
    0.0714    0.0413    0.0000 C   0  0  0  0  0  0  0  0  0  0  0  0
    0.0714   -0.7837    0.0000 C   0  0  0  0  0  0  0  0  0  0  0  0
   -0.6430   -1.1963    0.0000 C   0  0  0  0  0  0  0  0  0  0  0  0
   -1.3575   -0.7838    0.0000 C   0  0  0  0  0  0  0  0  0  0  0  0
   -1.3575    0.0412    0.0000 C   0  0  0  0  0  0  0  0  0  0  0  0
    0.7859    0.4538    0.0000 C   0  0  0  0  0  0  0  0  0  0  0  0
    1.5004    0.0413    0.0000 N   0  3  0  0  0  0  0  0  0  0  0  0
    2.2149    0.4538    0.0000 O   0  0  0  0  0  0  0  0  0  0  0  0
    4.5720    0.0000    0.0000 Cl  0  5  0  0  0  0  0  0  0  0  0  0
  1  2  1  0  0  0  0
  2  3  1  0  0  0  0
  3  4  1  0  0  0  0
  4  5  2  0  0  0  0
  5  6  1  0  0  0  0
  6  7  2  0  0  0  0
  2  7  1  0  0  0  0
  3  8  2  0  0  0  0
  8  9  1  0  0  0  0
  9 10  2  0  0  0  0
M  CHG  2   9   1  11  -1
M  END
>  <Name>
2-Pyridinealdoxime methochloride

>  <CAS>
51-15-0

>  <Formula>
C7H9ClN2O

>  <MolWt>
172.61 

>  <Bioactivity>
Pralidoxime or 2-PAM, usually as the chloride or methiodide salts, belongs to a family of compounds called oximes that bind to organophosphate-inactivated acetylcholinesterase.  

>  <Pathways>
Neuroscience

>  <Target>
ChE Reactivator

>  <Receptor>
ChE Reactivator

>  <Reference>
1. Jokanovi? M, Prostran M. Curr Med Chem. 2009;16(17):2177-88.

$$$$
T1417
  Mrv1561503291623562D          

 10  7  0  0  0  0            999 V2000
    0.4125    0.0000    0.0000 H   0  3  0  0  0  0  0  0  0  0  0  0
    5.1561    0.3094    0.0000 C   0  0  0  0  0  0  0  0  0  0  0  0
    4.4416   -0.1031    0.0000 N   0  0  0  0  0  0  0  0  0  0  0  0
    3.7272    0.3094    0.0000 C   0  0  0  0  0  0  0  0  0  0  0  0
    3.0127   -0.1031    0.0000 C   0  0  0  0  0  0  0  0  0  0  0  0
    2.2982    0.3094    0.0000 Cl  0  0  0  0  0  0  0  0  0  0  0  0
    4.4416   -0.9281    0.0000 C   0  0  0  0  0  0  0  0  0  0  0  0
    5.8706   -0.1031    0.0000 C   0  0  0  0  0  0  0  0  0  0  0  0
    6.5850    0.3094    0.0000 Cl  0  0  0  0  0  0  0  0  0  0  0  0
   -0.4125    0.0000    0.0000 Cl  0  5  0  0  0  0  0  0  0  0  0  0
  2  3  1  0  0  0  0
  3  4  1  0  0  0  0
  4  5  1  0  0  0  0
  5  6  1  0  0  0  0
  3  7  1  0  0  0  0
  2  8  1  0  0  0  0
  8  9  1  0  0  0  0
M  CHG  2   1   1  10  -1
M  END
>  <Name>
Mechlorethamine HCl

>  <CAS>
55-86-7

>  <Formula>
C5H12Cl3N

>  <MolWt>
192.51 

>  <Bioactivity>
A vesicant and necrotizing irritant destructive to mucous membranes. It was formerly used as a war gas. The hydrochloride is used as an antineoplastic in Hodgkin's disease and lymphomas. It causes severe gastrointestinal and bone marrow damage. 

>  <Pathways>
DNA Damage/DNA Repair

>  <Target>
DNA/RNA Synthesis inhibitor

>  <Receptor>
DNA/RNA Synthesis

>  <Reference>
1. Khan S, et al. Biochem Pharmacol, 1992, 43(9), 1963-1967.

$$$$
55268-74-1
  Mrv1561503291623562D          

 23 26  0  0  0  0            999 V2000
    2.7770    1.1270    0.0000 C   0  0  0  0  0  0  0  0  0  0  0  0
    3.6020    1.1270    0.0000 C   0  0  0  0  0  0  0  0  0  0  0  0
    4.0145    0.4125    0.0000 C   0  0  0  0  0  0  0  0  0  0  0  0
    3.6020   -0.3020    0.0000 C   0  0  0  0  0  0  0  0  0  0  0  0
    2.7770   -0.3020    0.0000 C   0  0  0  0  0  0  0  0  0  0  0  0
    2.3645    0.4125    0.0000 C   0  0  0  0  0  0  0  0  0  0  0  0
    1.5395    0.4125    0.0000 C   0  0  0  0  0  0  0  0  0  0  0  0
    1.1270   -0.3020    0.0000 N   0  0  0  0  0  0  0  0  0  0  0  0
    0.3020   -0.3020    0.0000 C   0  0  0  0  0  0  0  0  0  0  0  0
   -0.1105    0.4125    0.0000 C   0  0  0  0  0  0  0  0  0  0  0  0
    0.3020    1.1270    0.0000 N   0  0  0  0  0  0  0  0  0  0  0  0
    1.1270    1.1270    0.0000 C   0  0  0  0  0  0  0  0  0  0  0  0
   -0.1105    1.8414    0.0000 C   0  0  0  0  0  0  0  0  0  0  0  0
    0.3020    2.5559    0.0000 C   0  0  0  0  0  0  0  0  0  0  0  0
   -0.1105    3.2704    0.0000 C   0  0  0  0  0  0  0  0  0  0  0  0
    0.3020    3.9849    0.0000 C   0  0  0  0  0  0  0  0  0  0  0  0
    1.1270    3.9849    0.0000 C   0  0  0  0  0  0  0  0  0  0  0  0
    1.5395    3.2704    0.0000 C   0  0  0  0  0  0  0  0  0  0  0  0
    1.1270    2.5559    0.0000 C   0  0  0  0  0  0  0  0  0  0  0  0
   -0.9355    1.8414    0.0000 O   0  0  0  0  0  0  0  0  0  0  0  0
   -0.1105   -1.0164    0.0000 O   0  0  0  0  0  0  0  0  0  0  0  0
    1.5395   -1.0164    0.0000 C   0  0  0  0  0  0  0  0  0  0  0  0
    2.3645   -1.0164    0.0000 C   0  0  0  0  0  0  0  0  0  0  0  0
  1  2  2  0  0  0  0
  2  3  1  0  0  0  0
  3  4  2  0  0  0  0
  4  5  1  0  0  0  0
  5  6  2  0  0  0  0
  1  6  1  0  0  0  0
  6  7  1  0  0  0  0
  7  8  1  0  0  0  0
  8  9  1  0  0  0  0
  9 10  1  0  0  0  0
 10 11  1  0  0  0  0
 11 12  1  0  0  0  0
  7 12  1  0  0  0  0
 11 13  1  0  0  0  0
 13 14  1  0  0  0  0
 14 15  1  0  0  0  0
 15 16  1  0  0  0  0
 16 17  1  0  0  0  0
 17 18  1  0  0  0  0
 18 19  1  0  0  0  0
 14 19  1  0  0  0  0
 13 20  2  0  0  0  0
  9 21  2  0  0  0  0
  8 22  1  0  0  0  0
 22 23  1  0  0  0  0
  5 23  1  0  0  0  0
M  END
>  <Name>
Praziquantel

>  <CAS>
55268-74-1

>  <Formula>
C19H24N2O2

>  <MolWt>
312.42 

>  <Bioactivity>
An anthelmintic used in most schistosome and many cestode infestations. 

>  <Pathways>
Membrane Transporter/Ion Channel

>  <Target>
Calcium Channel inhibitor

>  <Receptor>
Calcium Channel

>  <Reference>
1. Doenhoff MJ, et al. Curr Opin Infect Dis. 2008 Dec;21(6):659-67. 

$$$$
T0676
  Mrv1561503291623562D          

  5  4  0  0  0  0            999 V2000
    1.2375   -0.7145    0.0000 O   0  0  0  0  0  0  0  0  0  0  0  0
    0.8250    0.0000    0.0000 C   0  0  0  0  0  0  0  0  0  0  0  0
    1.2375    0.7145    0.0000 N   0  0  0  0  0  0  0  0  0  0  0  0
    0.8250    1.4289    0.0000 O   0  0  0  0  0  0  0  0  0  0  0  0
    0.0000    0.0000    0.0000 N   0  0  0  0  0  0  0  0  0  0  0  0
  1  2  2  0  0  0  0
  2  3  1  0  0  0  0
  3  4  1  0  0  0  0
  2  5  1  0  0  0  0
M  END
>  <Name>
Hydroxyurea

>  <CAS>
127-07-1

>  <Formula>
CH4N2O2

>  <MolWt>
76.06 

>  <Bioactivity>
An antineoplastic agent that inhibits DNA synthesis through the inhibition of ribonucleoside diphosphate reductase

>  <Pathways>
DNA Damage/DNA Repair

>  <Target>
DNA/RNA Synthesis inhibitor

>  <Receptor>
DNA/RNA Synthesis

>  <Reference>
1. Culligan K, et al. Plant Cell. 2004 May;16(5):1091-104.

$$$$
58-94-6
  Mrv1561503291623562D          

 17 18  0  0  0  0            999 V2000
   -0.0000    0.0000    0.0000 C   0  0  0  0  0  0  0  0  0  0  0  0
   -0.7145   -0.4125    0.0000 C   0  0  0  0  0  0  0  0  0  0  0  0
   -1.4289    0.0000    0.0000 S   0  0  0  0  0  0  0  0  0  0  0  0
   -2.1434    0.4125    0.0000 N   0  0  0  0  0  0  0  0  0  0  0  0
   -1.8414   -0.7145    0.0000 O   0  0  0  0  0  0  0  0  0  0  0  0
   -1.0164    0.7145    0.0000 O   0  0  0  0  0  0  0  0  0  0  0  0
   -0.7145   -1.2375    0.0000 C   0  0  0  0  0  0  0  0  0  0  0  0
   -0.0000   -1.6500    0.0000 C   0  0  0  0  0  0  0  0  0  0  0  0
    0.7145   -1.2375    0.0000 C   0  0  0  0  0  0  0  0  0  0  0  0
    0.7145   -0.4125    0.0000 C   0  0  0  0  0  0  0  0  0  0  0  0
    1.4289    0.0000    0.0000 S   0  0  0  0  0  0  0  0  0  0  0  0
    2.1434   -0.4125    0.0000 N   0  0  0  0  0  0  0  0  0  0  0  0
    2.1434   -1.2375    0.0000 C   0  0  0  0  0  0  0  0  0  0  0  0
    1.4289   -1.6500    0.0000 N   0  0  0  0  0  0  0  0  0  0  0  0
    1.0416    0.7284    0.0000 O   0  0  0  0  0  0  0  0  0  0  0  0
    1.8163    0.7284    0.0000 O   0  0  0  0  0  0  0  0  0  0  0  0
   -1.4289   -1.6500    0.0000 Cl  0  0  0  0  0  0  0  0  0  0  0  0
  1  2  2  0  0  0  0
  2  3  1  0  0  0  0
  3  4  1  0  0  0  0
  3  5  2  0  0  0  0
  3  6  2  0  0  0  0
  2  7  1  0  0  0  0
  7  8  2  0  0  0  0
  8  9  1  0  0  0  0
  9 10  2  0  0  0  0
  1 10  1  0  0  0  0
 10 11  1  0  0  0  0
 11 12  1  0  0  0  0
 12 13  2  0  0  0  0
 13 14  1  0  0  0  0
  9 14  1  0  0  0  0
 11 15  2  0  0  0  0
 11 16  2  0  0  0  0
  7 17  1  0  0  0  0
M  END
>  <Name>
Chlorothiazide

>  <CAS>
58-94-6

>  <Formula>
C7H6ClN3O4S2

>  <MolWt>
295.72 

>  <Bioactivity>
Chlorothiazide is a diuretic and antihypertensive.

>  <Pathways>
Metabolism

>  <Target>
Carbonic anhydrase inhibitor

>  <Receptor>
CA

>  <Reference>
1. Schmidt H, et al. Horm Metab Res. 2001 Jun;33(6):354-7. 

$$$$
84057-84-1
  Mrv1561503291623562D          

 16 17  0  0  0  0            999 V2000
    0.7145   -2.8875    0.0000 C   0  0  0  0  0  0  0  0  0  0  0  0
    0.0000   -2.4750    0.0000 C   0  0  0  0  0  0  0  0  0  0  0  0
   -0.7145   -2.8875    0.0000 C   0  0  0  0  0  0  0  0  0  0  0  0
   -0.7145   -3.7125    0.0000 C   0  0  0  0  0  0  0  0  0  0  0  0
   -1.4289   -4.1250    0.0000 N   0  0  0  0  0  0  0  0  0  0  0  0
   -2.1434   -3.7125    0.0000 C   0  0  0  0  0  0  0  0  0  0  0  0
   -2.8579   -4.1250    0.0000 N   0  0  0  0  0  0  0  0  0  0  0  0
   -2.1434   -2.8875    0.0000 N   0  0  0  0  0  0  0  0  0  0  0  0
   -1.4289   -2.4750    0.0000 N   0  0  0  0  0  0  0  0  0  0  0  0
   -0.0000   -4.1250    0.0000 N   0  0  0  0  0  0  0  0  0  0  0  0
   -0.0000   -1.6500    0.0000 C   0  0  0  0  0  0  0  0  0  0  0  0
    0.7145   -1.2375    0.0000 C   0  0  0  0  0  0  0  0  0  0  0  0
    1.4289   -1.6500    0.0000 C   0  0  0  0  0  0  0  0  0  0  0  0
    1.4289   -2.4750    0.0000 C   0  0  0  0  0  0  0  0  0  0  0  0
    0.7145   -0.4125    0.0000 Cl  0  0  0  0  0  0  0  0  0  0  0  0
   -0.7145   -1.2375    0.0000 Cl  0  0  0  0  0  0  0  0  0  0  0  0
  1  2  2  0  0  0  0
  2  3  1  0  0  0  0
  3  4  2  0  0  0  0
  4  5  1  0  0  0  0
  5  6  2  0  0  0  0
  6  7  1  0  0  0  0
  6  8  1  0  0  0  0
  8  9  2  0  0  0  0
  3  9  1  0  0  0  0
  4 10  1  0  0  0  0
  2 11  1  0  0  0  0
 11 12  2  0  0  0  0
 12 13  1  0  0  0  0
 13 14  2  0  0  0  0
  1 14  1  0  0  0  0
 12 15  1  0  0  0  0
 11 16  1  0  0  0  0
M  END
>  <Name>
Lamotrigine

>  <CAS>
84057-84-1

>  <Formula>
C9H7Cl2N5

>  <MolWt>
256.09 

>  <Bioactivity>
Lamotrigine is an anticonvulsant drug used in the treatment of epilepsy and bipolar disorder. For epilepsy it is used to treat partial seizures, primary and secondary tonic-clonic seizures, and seizures associated with Lennox-Gastaut syndrome. Lamotrigine also acts as a mood stabilizer. It is the first medication since lithium granted Food and Drug Administration (FDA) approval for the maintenance treatment of bipolar type I. Chemically unrelated to other anticonvulsants, lamotrigine has relatively few side-effects and does not require blood monitoring. The exact way lamotrigine works is unknown. 

>  <Pathways>
Membrane Transporter/Ion Channel; Neuroscience

>  <Target>
5-HT receptor antagonist;Sodium Channel inhibitor

>  <Receptor>
5-HT receptor; Sodium channel

>  <Reference>
1. Lipkind GM, et al. Mol Pharmacol. 2005 Dec;68(6):1611-22.

$$$$
T0684
  Mrv1561503291623562D          

 17 18  0  0  1  0            999 V2000
    0.5678    1.9393    0.0000 C   0  0  2  0  0  0  0  0  0  0  0  0
    0.5678    1.1143    0.0000 N   0  0  0  0  0  0  0  0  0  0  0  0
    1.2352    0.6294    0.0000 N   0  0  0  0  0  0  0  0  0  0  0  0
    0.9803   -0.1553    0.0000 C   0  0  0  0  0  0  0  0  0  0  0  0
    1.4652   -0.8227    0.0000 C   0  0  0  0  0  0  0  0  0  0  0  0
    1.1296   -1.5764    0.0000 N   0  0  0  0  0  0  0  0  0  0  0  0
    2.2857   -0.7365    0.0000 O   0  0  0  0  0  0  0  0  0  0  0  0
    0.1553   -0.1553    0.0000 N   0  0  0  0  0  0  0  0  0  0  0  0
   -0.0997    0.6294    0.0000 C   0  0  0  0  0  0  0  0  0  0  0  0
   -0.0997    2.4242    0.0000 O   0  0  0  0  0  0  0  0  0  0  0  0
    0.1553    3.2088    0.0000 C   0  0  2  0  0  0  0  0  0  0  0  0
   -0.3297    3.8763    0.0000 C   0  0  0  0  0  0  0  0  0  0  0  0
   -1.1501    3.7900    0.0000 O   0  0  0  0  0  0  0  0  0  0  0  0
    0.9803    3.2088    0.0000 C   0  0  2  0  0  0  0  0  0  0  0  0
    1.2352    2.4242    0.0000 C   0  0  1  0  0  0  0  0  0  0  0  0
    2.0198    2.1693    0.0000 O   0  0  0  0  0  0  0  0  0  0  0  0
    1.4652    3.8763    0.0000 O   0  0  0  0  0  0  0  0  0  0  0  0
  1  2  1  6  0  0  0
  2  3  1  0  0  0  0
  3  4  2  0  0  0  0
  4  5  1  0  0  0  0
  5  6  1  0  0  0  0
  5  7  2  0  0  0  0
  4  8  1  0  0  0  0
  8  9  2  0  0  0  0
  2  9  1  0  0  0  0
  1 10  1  0  0  0  0
 10 11  1  0  0  0  0
 11 12  1  6  0  0  0
 12 13  1  0  0  0  0
 11 14  1  0  0  0  0
 14 15  1  0  0  0  0
  1 15  1  0  0  0  0
 15 16  1  1  0  0  0
 14 17  1  1  0  0  0
M  END
>  <Name>
Ribavirin

>  <CAS>
36791-04-5

>  <Formula>
C8H12N4O5

>  <MolWt>
244.20 

>  <Bioactivity>
A nucleoside antimetabolite antiviral agent that blocks nucleic acid synthesis and is used against both RNA and DNA viruses. 

>  <Pathways>
DNA Damage/DNA Repair

>  <Target>
RNA synthesis inhibitor;ADK activator;DH inhibitor

>  <Receptor>
RNA polymerase;ADK;IMPDH1

>  <Reference>
1. Bougie I, Bisaillon M. J Biol Chem. 2003 Dec 26;278(52):52471-8.

$$$$
T0688
  Mrv1561503291623562D          

 18 19  0  0  0  0            999 V2000
   -3.4402   -1.8955    0.0000 C   0  0  0  0  0  0  0  0  0  0  0  0
   -3.9923   -2.5086    0.0000 N   0  0  0  0  0  0  0  0  0  0  0  0
   -3.5798   -3.2231    0.0000 C   0  0  0  0  0  0  0  0  0  0  0  0
   -2.7728   -3.0516    0.0000 C   0  0  0  0  0  0  0  0  0  0  0  0
   -2.6866   -2.2311    0.0000 N   0  0  0  0  0  0  0  0  0  0  0  0
   -1.9721   -1.8186    0.0000 C   0  0  0  0  0  0  0  0  0  0  0  0
   -1.9721   -0.9936    0.0000 O   0  0  0  0  0  0  0  0  0  0  0  0
   -1.2576   -0.5811    0.0000 C   0  0  0  0  0  0  0  0  0  0  0  0
   -1.2576    0.2439    0.0000 C   0  0  0  0  0  0  0  0  0  0  0  0
   -0.5432    0.6564    0.0000 O   0  0  0  0  0  0  0  0  0  0  0  0
   -0.5432   -0.9936    0.0000 C   0  0  0  0  0  0  0  0  0  0  0  0
   -0.5432   -1.8186    0.0000 O   0  0  0  0  0  0  0  0  0  0  0  0
   -2.2208   -3.6647    0.0000 N   0  0  0  0  0  0  0  0  0  0  0  0
   -2.4757   -4.4493    0.0000 C   0  0  0  0  0  0  0  0  0  0  0  0
   -3.2827   -4.6208    0.0000 N   0  0  0  0  0  0  0  0  0  0  0  0
   -3.8347   -4.0077    0.0000 C   0  0  0  0  0  0  0  0  0  0  0  0
   -4.6417   -4.1793    0.0000 O   0  0  0  0  0  0  0  0  0  0  0  0
   -1.9237   -5.0624    0.0000 N   0  0  0  0  0  0  0  0  0  0  0  0
  1  2  2  0  0  0  0
  2  3  1  0  0  0  0
  3  4  2  0  0  0  0
  4  5  1  0  0  0  0
  1  5  1  0  0  0  0
  5  6  1  0  0  0  0
  6  7  1  0  0  0  0
  7  8  1  0  0  0  0
  8  9  1  0  0  0  0
  9 10  1  0  0  0  0
  8 11  1  0  0  0  0
 11 12  1  0  0  0  0
  4 13  1  0  0  0  0
 13 14  1  0  0  0  0
 14 15  2  0  0  0  0
 15 16  1  0  0  0  0
  3 16  1  0  0  0  0
 16 17  2  0  0  0  0
 14 18  1  0  0  0  0
M  END
>  <Name>
Ganciclovir

>  <CAS>
82410-32-0

>  <Formula>
C9H13N5O4

>  <MolWt>
255.23 

>  <Bioactivity>
An ACYCLOVIR analog that is a potent inhibitor of the Herpesvirus family including cytomegalovirus. Ganciclovir is used to treat complications from AIDS-associated cytomegalovirus infections.  

>  <Pathways>
DNA Damage/DNA Repair;Microbiology & Virology

>  <Target>
Antiviral;DNA/RNA Synthesis inhibitor

>  <Receptor>
DNA polymerase inhibitor; DNA polymerase ;TK

>  <Reference>
1. Champness JN, et al. Proteins. 1998 Aug 15;32(3):350-61. 

$$$$
T0692
  Mrv1561503291623562D          

 10 11  0  0  0  0            999 V2000
    3.2789    2.0625    0.0000 O   0  0  0  0  0  0  0  0  0  0  0  0
    3.2789    1.2375    0.0000 C   0  0  0  0  0  0  0  0  0  0  0  0
    3.9934    0.8250    0.0000 N   0  0  0  0  0  0  0  0  0  0  0  0
    3.9934    0.0000    0.0000 C   0  0  0  0  0  0  0  0  0  0  0  0
    3.2789   -0.4125    0.0000 N   0  0  0  0  0  0  0  0  0  0  0  0
    2.5645   -0.0000    0.0000 C   0  0  0  0  0  0  0  0  0  0  0  0
    1.7798   -0.2549    0.0000 N   0  0  0  0  0  0  0  0  0  0  0  0
    1.2949    0.4125    0.0000 N   0  0  0  0  0  0  0  0  0  0  0  0
    1.7798    1.0799    0.0000 C   0  0  0  0  0  0  0  0  0  0  0  0
    2.5645    0.8250    0.0000 C   0  0  0  0  0  0  0  0  0  0  0  0
  1  2  2  0  0  0  0
  2  3  1  0  0  0  0
  3  4  2  0  0  0  0
  4  5  1  0  0  0  0
  5  6  2  0  0  0  0
  6  7  1  0  0  0  0
  7  8  1  0  0  0  0
  8  9  1  0  0  0  0
  9 10  2  0  0  0  0
  2 10  1  0  0  0  0
  6 10  1  0  0  0  0
M  END
>  <Name>
Allopurinol

>  <CAS>
315-30-0

>  <Formula>
C5H4N4O

>  <MolWt>
136.11 

>  <Bioactivity>
An anti-urolithic Xanthine oxidase inhibitor that decreases uric acid production and is used in treatment of hyperuricemia and chronic gout.

>  <Pathways>
Metabolism

>  <Target>
Xanthine Oxidase inhibitor

>  <Receptor>
OX Receptor

>  <Reference>
1. Suzuki I, et al. Drugs Today (Barc). 2009 May;45(5):363-78.

$$$$
22839-47-0
  Mrv1561503291623562D          

 21 21  0  0  0  0            999 V2000
    2.1773   -3.0889    0.0000 C   0  0  0  0  0  0  0  0  0  0  0  0
    1.9073   -2.3093    0.0000 C   0  0  0  0  0  0  0  0  0  0  0  0
    1.0971   -2.1534    0.0000 C   0  0  0  0  0  0  0  0  0  0  0  0
    0.5570   -2.7770    0.0000 C   0  0  0  0  0  0  0  0  0  0  0  0
   -0.2531   -2.6211    0.0000 N   0  0  0  0  0  0  0  0  0  0  0  0
   -0.7932   -3.2448    0.0000 C   0  0  0  0  0  0  0  0  0  0  0  0
   -1.6033   -3.0889    0.0000 C   0  0  0  0  0  0  0  0  0  0  0  0
   -2.1434   -3.7125    0.0000 C   0  0  0  0  0  0  0  0  0  0  0  0
   -2.9535   -3.5566    0.0000 C   0  0  0  0  0  0  0  0  0  0  0  0
   -3.4936   -4.1802    0.0000 O   0  0  0  0  0  0  0  0  0  0  0  0
   -3.2236   -2.7770    0.0000 O   0  0  0  0  0  0  0  0  0  0  0  0
   -1.8734   -2.3093    0.0000 N   0  0  0  0  0  0  0  0  0  0  0  0
   -0.5231   -4.0243    0.0000 O   0  0  0  0  0  0  0  0  0  0  0  0
    0.8271   -3.5566    0.0000 C   0  0  0  0  0  0  0  0  0  0  0  0
    1.6372   -3.7125    0.0000 O   0  0  0  0  0  0  0  0  0  0  0  0
    1.9073   -4.4921    0.0000 C   0  0  0  0  0  0  0  0  0  0  0  0
    0.2870   -4.1802    0.0000 O   0  0  0  0  0  0  0  0  0  0  0  0
    2.4473   -1.6857    0.0000 C   0  0  0  0  0  0  0  0  0  0  0  0
    3.2575   -1.8416    0.0000 C   0  0  0  0  0  0  0  0  0  0  0  0
    3.5275   -2.6211    0.0000 C   0  0  0  0  0  0  0  0  0  0  0  0
    2.9874   -3.2448    0.0000 C   0  0  0  0  0  0  0  0  0  0  0  0
  1  2  2  0  0  0  0
  2  3  1  0  0  0  0
  3  4  1  0  0  0  0
  4  5  1  0  0  0  0
  5  6  1  0  0  0  0
  6  7  1  0  0  0  0
  7  8  1  0  0  0  0
  8  9  1  0  0  0  0
  9 10  1  0  0  0  0
  9 11  2  0  0  0  0
  7 12  1  0  0  0  0
  6 13  2  0  0  0  0
  4 14  1  0  0  0  0
 14 15  1  0  0  0  0
 15 16  1  0  0  0  0
 14 17  2  0  0  0  0
  2 18  1  0  0  0  0
 18 19  2  0  0  0  0
 19 20  1  0  0  0  0
 20 21  2  0  0  0  0
  1 21  1  0  0  0  0
M  END
>  <Name>
Aspartame

>  <CAS>
22839-47-0

>  <Formula>
C14H18N2O5

>  <MolWt>
294.30 

>  <Bioactivity>
Flavoring agent sweeter than sugar, metabolized as PHENYLALANINE and ASPARTIC ACID.

>  <Pathways>
Others

>  <Target>
Others

>  <Receptor>
Taste receptor; Transient receptor potential cation channel

>  <Reference>
1. Xu H, et al. Proc Natl Acad Sci U S A. 2004 Sep 28;101(39):14258-63. 

$$$$
131-53-3
  Mrv1561503291623562D          

 18 19  0  0  0  0            999 V2000
   -1.4289   -1.6500    0.0000 C   0  0  0  0  0  0  0  0  0  0  0  0
   -1.4289   -2.4750    0.0000 C   0  0  0  0  0  0  0  0  0  0  0  0
   -0.7145   -2.8875    0.0000 C   0  0  0  0  0  0  0  0  0  0  0  0
   -0.0000   -2.4750    0.0000 C   0  0  0  0  0  0  0  0  0  0  0  0
   -0.0000   -1.6500    0.0000 C   0  0  0  0  0  0  0  0  0  0  0  0
   -0.7145   -1.2375    0.0000 C   0  0  0  0  0  0  0  0  0  0  0  0
   -0.7145   -0.4125    0.0000 C   0  0  0  0  0  0  0  0  0  0  0  0
   -0.0000    0.0000    0.0000 O   0  0  0  0  0  0  0  0  0  0  0  0
   -1.4289    0.0000    0.0000 C   0  0  0  0  0  0  0  0  0  0  0  0
   -2.1434   -0.4125    0.0000 C   0  0  0  0  0  0  0  0  0  0  0  0
   -2.1434   -1.2375    0.0000 O   0  0  0  0  0  0  0  0  0  0  0  0
   -2.8579   -0.0000    0.0000 C   0  0  0  0  0  0  0  0  0  0  0  0
   -2.8579    0.8250    0.0000 C   0  0  0  0  0  0  0  0  0  0  0  0
   -2.1434    1.2375    0.0000 C   0  0  0  0  0  0  0  0  0  0  0  0
   -1.4289    0.8250    0.0000 C   0  0  0  0  0  0  0  0  0  0  0  0
    0.7145   -1.2375    0.0000 O   0  0  0  0  0  0  0  0  0  0  0  0
   -0.7145   -3.7125    0.0000 O   0  0  0  0  0  0  0  0  0  0  0  0
   -1.4289   -4.1250    0.0000 C   0  0  0  0  0  0  0  0  0  0  0  0
  1  2  2  0  0  0  0
  2  3  1  0  0  0  0
  3  4  2  0  0  0  0
  4  5  1  0  0  0  0
  5  6  2  0  0  0  0
  1  6  1  0  0  0  0
  6  7  1  0  0  0  0
  7  8  2  0  0  0  0
  7  9  1  0  0  0  0
  9 10  2  0  0  0  0
 10 11  1  0  0  0  0
 10 12  1  0  0  0  0
 12 13  2  0  0  0  0
 13 14  1  0  0  0  0
 14 15  2  0  0  0  0
  9 15  1  0  0  0  0
  5 16  1  0  0  0  0
  3 17  1  0  0  0  0
 17 18  1  0  0  0  0
M  END
>  <Name>
Cyasorb

>  <CAS>
131-53-3

>  <Formula>
C14H12O4

>  <MolWt>
244.25 

>  <Bioactivity>
Dioxybenzone (benzophenone-8) is an organic compound used in sunscreen to block UVB and short-wave UVA (ultraviolet) rays.[2] It is a derivative of benzophenone. It is a yellow powder with a melting point of 68 °C. It is insoluble in water, but moderately soluble in ethanol and isopropanol.

>  <Pathways>
Others

>  <Target>
Others

>  <Receptor>
Others

>  <Reference>
1. Rao GS, et al. Anticancer Res. 2013 Jun;33(6):2535-40.

$$$$
T0699
  Mrv1561503291623562D          

 19 20  0  0  0  0            999 V2000
   -0.7145   -2.8875    0.0000 C   0  0  0  0  0  0  0  0  0  0  0  0
   -1.4289   -3.3000    0.0000 C   0  0  0  0  0  0  0  0  0  0  0  0
   -1.4289   -4.1250    0.0000 S   0  0  0  0  0  0  0  0  0  0  0  0
   -1.4289   -4.9500    0.0000 N   0  0  0  0  0  0  0  0  0  0  0  0
   -0.7145   -5.3625    0.0000 C   0  0  0  0  0  0  0  0  0  0  0  0
   -0.0000   -4.9500    0.0000 N   0  0  0  0  0  0  0  0  0  0  0  0
    0.7145   -5.3625    0.0000 C   0  0  0  0  0  0  0  0  0  0  0  0
    0.7145   -6.1875    0.0000 N   0  0  0  0  0  0  0  0  0  0  0  0
   -0.0000   -6.6000    0.0000 C   0  0  0  0  0  0  0  0  0  0  0  0
   -0.7145   -6.1875    0.0000 C   0  0  0  0  0  0  0  0  0  0  0  0
   -0.0000   -7.4250    0.0000 O   0  0  0  0  0  0  0  0  0  0  0  0
    0.7145   -7.8375    0.0000 C   0  0  0  0  0  0  0  0  0  0  0  0
   -0.6039   -4.1250    0.0000 O   0  0  0  0  0  0  0  0  0  0  0  0
   -2.2539   -4.1250    0.0000 O   0  0  0  0  0  0  0  0  0  0  0  0
   -2.1434   -2.8875    0.0000 C   0  0  0  0  0  0  0  0  0  0  0  0
   -2.1434   -2.0625    0.0000 C   0  0  0  0  0  0  0  0  0  0  0  0
   -1.4289   -1.6500    0.0000 C   0  0  0  0  0  0  0  0  0  0  0  0
   -0.7145   -2.0625    0.0000 C   0  0  0  0  0  0  0  0  0  0  0  0
   -1.4289   -0.8250    0.0000 N   0  0  0  0  0  0  0  0  0  0  0  0
  1  2  2  0  0  0  0
  2  3  1  0  0  0  0
  3  4  1  0  0  0  0
  4  5  1  0  0  0  0
  5  6  2  0  0  0  0
  6  7  1  0  0  0  0
  7  8  2  0  0  0  0
  8  9  1  0  0  0  0
  9 10  2  0  0  0  0
  5 10  1  0  0  0  0
  9 11  1  0  0  0  0
 11 12  1  0  0  0  0
  3 13  2  0  0  0  0
  3 14  2  0  0  0  0
  2 15  1  0  0  0  0
 15 16  2  0  0  0  0
 16 17  1  0  0  0  0
 17 18  2  0  0  0  0
  1 18  1  0  0  0  0
 17 19  1  0  0  0  0
M  END
>  <Name>
Sulfamonomethoxine

>  <CAS>
1220-83-3

>  <Formula>
C11H12N4O3S

>  <MolWt>
280.31 

>  <Bioactivity>
Long acting sulfonamide antibacterial agent.

>  <Pathways>
Microbiology & Virology

>  <Target>
Antibiotic

>  <Receptor>
Others

>  <Reference>
1. Ma J, et al. Environ Sci Pollut Res Int. 2014 Jun;21(12):7436-48.

$$$$
60142-96-3
  Mrv1561503291623562D          

 12 12  0  0  0  0            999 V2000
    0.1842    1.8695    0.0000 C   0  0  0  0  0  0  0  0  0  0  0  0
    0.7145    1.2375    0.0000 C   0  0  0  0  0  0  0  0  0  0  0  0
    1.4289    0.8250    0.0000 C   0  0  0  0  0  0  0  0  0  0  0  0
    1.4289    0.0000    0.0000 C   0  0  0  0  0  0  0  0  0  0  0  0
    0.7145   -0.4125    0.0000 C   0  0  0  0  0  0  0  0  0  0  0  0
    0.0000   -0.0000    0.0000 C   0  0  0  0  0  0  0  0  0  0  0  0
    0.0000    0.8250    0.0000 C   0  0  0  0  0  0  0  0  0  0  0  0
    1.2448    1.8695    0.0000 C   0  0  0  0  0  0  0  0  0  0  0  0
    2.0572    1.7262    0.0000 N   0  0  0  0  0  0  0  0  0  0  0  0
    0.4663    2.6447    0.0000 C   0  0  0  0  0  0  0  0  0  0  0  0
   -0.0640    3.2767    0.0000 O   0  0  0  0  0  0  0  0  0  0  0  0
    1.2788    2.7880    0.0000 O   0  0  0  0  0  0  0  0  0  0  0  0
  1  2  1  0  0  0  0
  2  3  1  0  0  0  0
  3  4  1  0  0  0  0
  4  5  1  0  0  0  0
  5  6  1  0  0  0  0
  6  7  1  0  0  0  0
  2  7  1  0  0  0  0
  2  8  1  0  0  0  0
  8  9  1  0  0  0  0
  1 10  1  0  0  0  0
 10 11  1  0  0  0  0
 10 12  2  0  0  0  0
M  END
>  <Name>
Gabapentin

>  <CAS>
60142-96-3

>  <Formula>
C9H17NO2

>  <MolWt>
207.70 

>  <Bioactivity>
Gabapentin (brand name Neurontin) is a medication originally developed for the treatment of epilepsy. Presently, gabapentin is widely used to relieve pain, especially neuropathic pain. Gabapentin is well tolerated in most patients, has a relatively mild side-effect profile, and passes through the body unmetabolized. 

>  <Pathways>
Membrane Transporter/Ion Channel;GPCR/G Protein

>  <Target>
Adenosine receptor agonist; Calcium Channel inhibitor

>  <Receptor>
Adenosine receptor ;Calcium Channel;BCAT

>  <Reference>
1. Hota D, et al. Methods Find Exp Clin Pharmacol. 2007 Sep;29(7):443-6.

$$$$
T0707
  Mrv1561503291623562D          

 15 14  0  0  0  0            999 V2000
    0.8837    0.6142    0.0000 C   0  0  0  0  0  0  0  0  0  0  0  0
    0.1692    0.2017    0.0000 N   0  0  0  0  0  0  0  0  0  0  0  0
    0.1692   -0.6233    0.0000 P   0  0  0  0  0  0  0  0  0  0  0  0
    0.4514   -1.3986    0.0000 O   0  0  0  0  0  0  0  0  0  0  0  0
   -0.0789   -2.0305    0.0000 C   0  0  0  0  0  0  0  0  0  0  0  0
   -0.8914   -1.8873    0.0000 C   0  0  0  0  0  0  0  0  0  0  0  0
   -1.1735   -1.1120    0.0000 C   0  0  0  0  0  0  0  0  0  0  0  0
   -0.6432   -0.4801    0.0000 N   0  0  0  0  0  0  0  0  0  0  0  0
    0.9817   -0.4801    0.0000 O   0  0  0  0  0  0  0  0  0  0  0  0
   -0.5452    0.6142    0.0000 C   0  0  0  0  0  0  0  0  0  0  0  0
   -0.5452    1.4392    0.0000 C   0  0  0  0  0  0  0  0  0  0  0  0
   -1.2597    1.8517    0.0000 Cl  0  0  0  0  0  0  0  0  0  0  0  0
    0.8837    1.4392    0.0000 C   0  0  0  0  0  0  0  0  0  0  0  0
    1.5982    1.8517    0.0000 Cl  0  0  0  0  0  0  0  0  0  0  0  0
    3.9553    0.0000    0.0000 O   0  0  0  0  0  0  0  0  0  0  0  0
  1  2  1  0  0  0  0
  2  3  1  0  0  0  0
  3  4  1  0  0  0  0
  4  5  1  0  0  0  0
  5  6  1  0  0  0  0
  6  7  1  0  0  0  0
  7  8  1  0  0  0  0
  3  8  1  0  0  0  0
  3  9  2  0  0  0  0
  2 10  1  0  0  0  0
 10 11  1  0  0  0  0
 11 12  1  0  0  0  0
  1 13  1  0  0  0  0
 13 14  1  0  0  0  0
M  END
>  <Name>
Cyclophosphamide monohydrate

>  <CAS>
6055-19-2

>  <Formula>
C7H17Cl2N2O2PH2

>  <MolWt>
279.10 

>  <Bioactivity>
Precursor of an alkylating nitrogen mustard antineoplastic and immunosuppressive agent that must be activated in the LIVER to form the active aldophosphamide. It has been used in the treatment of LYMPHOMA and LEUKEMIA. Its side effect, ALOPECIA, has been used for defleecing sheep. Cyclophosphamide may also cause sterility, birth defects, mutations, and cancer. 

>  <Pathways>
DNA Damage/DNA Repair

>  <Target>
DNA;MRP inhibitor

>  <Receptor>
DNA;MRP1

>  <Reference>
1. Ketolainen J, et al. Pharm Res. 1995 Feb;12(2):299-304.

$$$$
21256-18-8
  Mrv1561503291623562D          

 22 24  0  0  0  0            999 V2000
   -0.0000   -0.0000    0.0000 C   0  0  0  0  0  0  0  0  0  0  0  0
   -0.0000    0.8250    0.0000 C   0  0  0  0  0  0  0  0  0  0  0  0
    0.7145    1.2375    0.0000 C   0  0  0  0  0  0  0  0  0  0  0  0
    1.4289    0.8250    0.0000 C   0  0  0  0  0  0  0  0  0  0  0  0
    1.4289    0.0000    0.0000 C   0  0  0  0  0  0  0  0  0  0  0  0
    0.7145   -0.4125    0.0000 C   0  0  0  0  0  0  0  0  0  0  0  0
    0.7145   -1.2375    0.0000 C   0  0  0  0  0  0  0  0  0  0  0  0
    1.3819   -1.7224    0.0000 C   0  0  0  0  0  0  0  0  0  0  0  0
    2.1665   -1.4675    0.0000 C   0  0  0  0  0  0  0  0  0  0  0  0
    2.3381   -0.6605    0.0000 C   0  0  0  0  0  0  0  0  0  0  0  0
    3.1227   -0.4056    0.0000 C   0  0  0  0  0  0  0  0  0  0  0  0
    3.7358   -0.9576    0.0000 C   0  0  0  0  0  0  0  0  0  0  0  0
    3.5642   -1.7646    0.0000 C   0  0  0  0  0  0  0  0  0  0  0  0
    2.7796   -2.0195    0.0000 C   0  0  0  0  0  0  0  0  0  0  0  0
    1.1270   -2.5070    0.0000 O   0  0  0  0  0  0  0  0  0  0  0  0
    0.3020   -2.5070    0.0000 C   0  0  0  0  0  0  0  0  0  0  0  0
    0.0470   -1.7224    0.0000 N   0  0  0  0  0  0  0  0  0  0  0  0
   -0.1830   -3.1745    0.0000 C   0  0  0  0  0  0  0  0  0  0  0  0
    0.1526   -3.9282    0.0000 C   0  0  0  0  0  0  0  0  0  0  0  0
   -0.3323   -4.5956    0.0000 C   0  0  0  0  0  0  0  0  0  0  0  0
    0.0032   -5.3493    0.0000 O   0  0  0  0  0  0  0  0  0  0  0  0
   -1.1528   -4.5094    0.0000 O   0  0  0  0  0  0  0  0  0  0  0  0
  1  2  2  0  0  0  0
  2  3  1  0  0  0  0
  3  4  2  0  0  0  0
  4  5  1  0  0  0  0
  5  6  2  0  0  0  0
  1  6  1  0  0  0  0
  6  7  1  0  0  0  0
  7  8  2  0  0  0  0
  8  9  1  0  0  0  0
  9 10  2  0  0  0  0
 10 11  1  0  0  0  0
 11 12  2  0  0  0  0
 12 13  1  0  0  0  0
 13 14  2  0  0  0  0
  9 14  1  0  0  0  0
  8 15  1  0  0  0  0
 15 16  1  0  0  0  0
 16 17  2  0  0  0  0
  7 17  1  0  0  0  0
 16 18  1  0  0  0  0
 18 19  1  0  0  0  0
 19 20  1  0  0  0  0
 20 21  1  0  0  0  0
 20 22  2  0  0  0  0
M  END
>  <Name>
Oxaprozin

>  <CAS>
21256-18-8

>  <Formula>
C18H15NO3

>  <MolWt>
293.32 

>  <Bioactivity>
Oxaprozin is a non-narcotic, non-steroidal anti-inflammatory drug (NSAID) used to relieve the inflammation, swelling, stiffness, and joint pain associated with osteoarthritis and rheumatoid arthritis.

>  <Pathways>
Neuroscience

>  <Target>
COX inhibitor

>  <Receptor>
Prostaglandin G/H synthase

>  <Reference>
1. Yood MU, et al. Pharmacoepidemiol Drug Saf. 2006 Dec;15(12):852-60. 

$$$$
T0750
  Mrv1561503291623562D          

 18 19  0  0  0  0            999 V2000
    0.7145   -0.4125    0.0000 C   0  0  0  0  0  0  0  0  0  0  0  0
    0.0000   -0.0000    0.0000 C   0  0  0  0  0  0  0  0  0  0  0  0
   -0.7145   -0.4125    0.0000 S   0  0  0  0  0  0  0  0  0  0  0  0
   -0.3020   -1.1270    0.0000 O   0  0  0  0  0  0  0  0  0  0  0  0
   -1.1270    0.3020    0.0000 O   0  0  0  0  0  0  0  0  0  0  0  0
   -1.4289   -0.8250    0.0000 N   0  0  0  0  0  0  0  0  0  0  0  0
   -1.4289   -1.6500    0.0000 C   0  0  0  0  0  0  0  0  0  0  0  0
   -0.7615   -2.1349    0.0000 C   0  0  0  0  0  0  0  0  0  0  0  0
   -1.0164   -2.9195    0.0000 C   0  0  0  0  0  0  0  0  0  0  0  0
   -1.8414   -2.9195    0.0000 N   0  0  0  0  0  0  0  0  0  0  0  0
   -2.0964   -2.1349    0.0000 O   0  0  0  0  0  0  0  0  0  0  0  0
   -0.5315   -3.5870    0.0000 C   0  0  0  0  0  0  0  0  0  0  0  0
    0.0231   -1.8800    0.0000 C   0  0  0  0  0  0  0  0  0  0  0  0
    0.0000    0.8250    0.0000 C   0  0  0  0  0  0  0  0  0  0  0  0
    0.7145    1.2375    0.0000 C   0  0  0  0  0  0  0  0  0  0  0  0
    1.4289    0.8250    0.0000 C   0  0  0  0  0  0  0  0  0  0  0  0
    1.4289   -0.0000    0.0000 C   0  0  0  0  0  0  0  0  0  0  0  0
    2.1434    1.2375    0.0000 N   0  0  0  0  0  0  0  0  0  0  0  0
  1  2  2  0  0  0  0
  2  3  1  0  0  0  0
  3  4  2  0  0  0  0
  3  5  2  0  0  0  0
  3  6  1  0  0  0  0
  6  7  1  0  0  0  0
  7  8  2  0  0  0  0
  8  9  1  0  0  0  0
  9 10  2  0  0  0  0
 10 11  1  0  0  0  0
  7 11  1  0  0  0  0
  9 12  1  0  0  0  0
  8 13  1  0  0  0  0
  2 14  1  0  0  0  0
 14 15  2  0  0  0  0
 15 16  1  0  0  0  0
 16 17  2  0  0  0  0
  1 17  1  0  0  0  0
 16 18  1  0  0  0  0
M  END
>  <Name>
Sulfisoxazole

>  <CAS>
127-69-5

>  <Formula>
C11H13N3O3S

>  <MolWt>
267.31 

>  <Bioactivity>
A short-acting sulfonamide antibacterial with activity against a wide range of gram- negative and gram-positive organisms.


>  <Pathways>
Microbiology & Virology

>  <Target>
Antibiotic

>  <Receptor>
Dihydropteroate synthase

>  <Reference>
1. Jorgensen JH, et al. J Clin Microbiol. 2005 Jul;43(7):3162-71.

$$$$
78-44-4
  Mrv1561503291623562D          

 18 17  0  0  0  0            999 V2000
    0.8250    1.4289    0.0000 C   0  0  0  0  0  0  0  0  0  0  0  0
    1.2375    2.1434    0.0000 C   0  0  0  0  0  0  0  0  0  0  0  0
    1.6500    2.8579    0.0000 C   0  0  0  0  0  0  0  0  0  0  0  0
    2.4750    2.8579    0.0000 O   0  0  0  0  0  0  0  0  0  0  0  0
    2.8875    2.1434    0.0000 C   0  0  0  0  0  0  0  0  0  0  0  0
    3.7125    2.1434    0.0000 N   0  0  0  0  0  0  0  0  0  0  0  0
    2.4750    1.4289    0.0000 O   0  0  0  0  0  0  0  0  0  0  0  0
    0.5230    2.5559    0.0000 C   0  0  0  0  0  0  0  0  0  0  0  0
    0.5230    3.3809    0.0000 C   0  0  0  0  0  0  0  0  0  0  0  0
    1.2375    3.7934    0.0000 C   0  0  0  0  0  0  0  0  0  0  0  0
    1.9520    1.7309    0.0000 C   0  0  0  0  0  0  0  0  0  0  0  0
    1.2375    0.7145    0.0000 O   0  0  0  0  0  0  0  0  0  0  0  0
    0.8250    0.0000    0.0000 C   0  0  0  0  0  0  0  0  0  0  0  0
    1.2375   -0.7145    0.0000 N   0  0  0  0  0  0  0  0  0  0  0  0
    0.8250   -1.4289    0.0000 C   0  0  0  0  0  0  0  0  0  0  0  0
    1.2375   -2.1434    0.0000 C   0  0  0  0  0  0  0  0  0  0  0  0
    0.0000   -1.4289    0.0000 C   0  0  0  0  0  0  0  0  0  0  0  0
    0.0000    0.0000    0.0000 O   0  0  0  0  0  0  0  0  0  0  0  0
  1  2  1  0  0  0  0
  2  3  1  0  0  0  0
  3  4  1  0  0  0  0
  4  5  1  0  0  0  0
  5  6  1  0  0  0  0
  5  7  2  0  0  0  0
  2  8  1  0  0  0  0
  8  9  1  0  0  0  0
  9 10  1  0  0  0  0
  2 11  1  0  0  0  0
  1 12  1  0  0  0  0
 12 13  1  0  0  0  0
 13 14  1  0  0  0  0
 14 15  1  0  0  0  0
 15 16  1  0  0  0  0
 15 17  1  0  0  0  0
 13 18  2  0  0  0  0
M  END
>  <Name>
Carisoprodol

>  <CAS>
78-44-4

>  <Formula>
C12H24N2O4

>  <MolWt>
260.34 

>  <Bioactivity>
A centrally acting skeletal muscle relaxant whose mechanism of action is not completely understood but may be related to its sedative actions. It is used as an adjunct in the symptomatic treatment of musculoskeletal conditions associated with painful muscle spasm. (From Martindale, The Extra Pharmacopoeia, 30th ed, p1202)


>  <Pathways>
Neuroscience

>  <Target>
GABAR

>  <Receptor>
GABAR

>  <Reference>
1. Kumar M, et al. Neuropharmacology. 2015 Apr 18. pii: S0028-3908(15)00136-7. 

$$$$
60-23-1
  Mrv1561503291623562D          

  4  3  0  0  0  0            999 V2000
    1.2375   -0.7145    0.0000 C   0  0  0  0  0  0  0  0  0  0  0  0
    2.0625   -0.7145    0.0000 S   0  0  0  0  0  0  0  0  0  0  0  0
    0.8250    0.0000    0.0000 C   0  0  0  0  0  0  0  0  0  0  0  0
    0.0000    0.0000    0.0000 N   0  0  0  0  0  0  0  0  0  0  0  0
  1  2  1  0  0  0  0
  1  3  1  0  0  0  0
  3  4  1  0  0  0  0
M  END
>  <Name>
2-Aminoethanethiol

>  <CAS>
60-23-1

>  <Formula>
C2H8ClNS

>  <MolWt>
77.15 

>  <Bioactivity>
A mercaptoethylamine compound that is endogenously derived from the COENZYME A degradative pathway. The fact that cysteamine is readily transported into LYSOSOMES where it reacts with CYSTINE to form cysteine-cysteamine disulfide and CYSTEINE has led to its use in CYSTINE DEPLETING AGENTS for the treatment of CYSTINOSIS.


>  <Pathways>
Others

>  <Target>
Cystine Cleavage;NPYR2;Somatostatin binder

>  <Receptor>
Cystine;NPYR2;Somatostatin

>  <Reference>
1. Omran Z, et al. Bioorg Med Chem Lett. 2011 Jan 1;21(1):45-7.

$$$$
31677-93-7
  Mrv1561503291623562D          

 18 16  0  0  0  0            999 V2000
    0.4125    0.0000    0.0000 H   0  3  0  0  0  0  0  0  0  0  0  0
    3.7272    0.5930    0.0000 C   0  0  0  0  0  0  0  0  0  0  0  0
    3.7272   -0.2320    0.0000 C   0  0  0  0  0  0  0  0  0  0  0  0
    4.4416   -0.6445    0.0000 C   0  0  0  0  0  0  0  0  0  0  0  0
    4.4416   -1.4695    0.0000 O   0  0  0  0  0  0  0  0  0  0  0  0
    5.1561   -0.2320    0.0000 C   0  0  0  0  0  0  0  0  0  0  0  0
    5.8706   -0.6445    0.0000 N   0  0  0  0  0  0  0  0  0  0  0  0
    6.5850   -0.2320    0.0000 C   0  0  0  0  0  0  0  0  0  0  0  0
    7.2995    0.1805    0.0000 C   0  0  0  0  0  0  0  0  0  0  0  0
    6.1725    0.4824    0.0000 C   0  0  0  0  0  0  0  0  0  0  0  0
    6.9975   -0.9465    0.0000 C   0  0  0  0  0  0  0  0  0  0  0  0
    5.1561    0.5930    0.0000 C   0  0  0  0  0  0  0  0  0  0  0  0
    3.0127   -0.6445    0.0000 C   0  0  0  0  0  0  0  0  0  0  0  0
    2.2982   -0.2320    0.0000 C   0  0  0  0  0  0  0  0  0  0  0  0
    2.2982    0.5930    0.0000 C   0  0  0  0  0  0  0  0  0  0  0  0
    3.0127    1.0055    0.0000 C   0  0  0  0  0  0  0  0  0  0  0  0
    3.0127    1.8305    0.0000 Cl  0  0  0  0  0  0  0  0  0  0  0  0
   -0.4125    0.0000    0.0000 Cl  0  5  0  0  0  0  0  0  0  0  0  0
  2  3  2  0  0  0  0
  3  4  1  0  0  0  0
  4  5  2  0  0  0  0
  4  6  1  0  0  0  0
  6  7  1  0  0  0  0
  7  8  1  0  0  0  0
  8  9  1  0  0  0  0
  8 10  1  0  0  0  0
  8 11  1  0  0  0  0
  6 12  1  0  0  0  0
  3 13  1  0  0  0  0
 13 14  2  0  0  0  0
 14 15  1  0  0  0  0
 15 16  2  0  0  0  0
  2 16  1  0  0  0  0
 16 17  1  0  0  0  0
M  CHG  2   1   1  18  -1
M  END
>  <Name>
Bupropion HCl

>  <CAS>
31677-93-7

>  <Formula>
C13H19Cl2NO

>  <MolWt>
276.21 

>  <Bioactivity>
A unicyclic, aminoketone antidepressant. The mechanism of its therapeutic actions is not well understood, but it does appear to block dopamine uptake. The hydrochloride is available as an aid to smoking cessation treatment.


>  <Pathways>
Neuroscience

>  <Target>
AChR antagonist;Dopamine uptake inhibitor;Noradrenaline uptake inhibitor

>  <Receptor>
Neuronal AChR;Sodium-dependent dopamine transporter;Sodium-dependent noradrenaline transporter

>  <Reference>
1. Mitchell HA, et al. Biol Psychiatry. 2006 Nov 15;60(10):1046-52.

$$$$
T1404
  Mrv1561503291623562D          

 16 17  0  0  1  0            999 V2000
    0.7145   -1.2375    0.0000 C   0  0  2  0  0  0  0  0  0  0  0  0
    0.7145   -0.4125    0.0000 N   0  0  0  0  0  0  0  0  0  0  0  0
   -0.0000   -0.0000    0.0000 C   0  0  0  0  0  0  0  0  0  0  0  0
   -0.0000    0.8250    0.0000 N   0  0  0  0  0  0  0  0  0  0  0  0
    0.7145    1.2375    0.0000 C   0  0  0  0  0  0  0  0  0  0  0  0
    0.7145    2.0625    0.0000 O   0  0  0  0  0  0  0  0  0  0  0  0
    1.4289    0.8250    0.0000 C   0  0  0  0  0  0  0  0  0  0  0  0
    1.4289   -0.0000    0.0000 C   0  0  0  0  0  0  0  0  0  0  0  0
    2.1434    1.2375    0.0000 C   0  0  0  0  0  0  0  0  0  0  0  0
   -0.7145   -0.4125    0.0000 O   0  0  0  0  0  0  0  0  0  0  0  0
    1.3819   -1.7224    0.0000 O   0  0  0  0  0  0  0  0  0  0  0  0
    1.1270   -2.5070    0.0000 C   0  0  2  0  0  0  0  0  0  0  0  0
    1.6119   -3.1745    0.0000 C   0  0  0  0  0  0  0  0  0  0  0  0
    2.4324   -3.0882    0.0000 O   0  0  0  0  0  0  0  0  0  0  0  0
    0.3020   -2.5070    0.0000 C   0  0  0  0  0  0  0  0  0  0  0  0
    0.0470   -1.7224    0.0000 C   0  0  0  0  0  0  0  0  0  0  0  0
  1  2  1  6  0  0  0
  2  3  1  0  0  0  0
  3  4  1  0  0  0  0
  4  5  1  0  0  0  0
  5  6  2  0  0  0  0
  5  7  1  0  0  0  0
  7  8  2  0  0  0  0
  2  8  1  0  0  0  0
  7  9  1  0  0  0  0
  3 10  2  0  0  0  0
  1 11  1  0  0  0  0
 11 12  1  0  0  0  0
 12 13  1  6  0  0  0
 13 14  1  0  0  0  0
 12 15  1  0  0  0  0
 15 16  2  0  0  0  0
  1 16  1  0  0  0  0
M  END
>  <Name>
Stavudine

>  <CAS>
3056-17-5

>  <Formula>
C10H12N2O4

>  <MolWt>
224.21 

>  <Bioactivity>
A dideoxynucleoside analog that inhibits reverse transcriptase and has in vitro activity against HIV.


>  <Pathways>
DNA Damage/DNA Repair;Microbiology & Virology

>  <Target>
Antiviral;Reverse Transcriptase inhibitor

>  <Receptor>
Reverse Transcriptase

>  <Reference>
1. Lea AP, Faulds D. Drugs. 1996 May;51(5):846-64.

$$$$
T1416
  Mrv1561503291623562D          

 19 20  0  0  1  0            999 V2000
    1.4289    0.0000    0.0000 N   0  3  0  0  0  0  0  0  0  0  0  0
    0.7145   -0.4125    0.0000 N   0  0  0  0  0  0  0  0  0  0  0  0
    0.7145   -1.2375    0.0000 C   0  0  2  0  0  0  0  0  0  0  0  0
    1.3819   -1.7224    0.0000 C   0  0  2  0  0  0  0  0  0  0  0  0
    1.1270   -2.5070    0.0000 O   0  0  0  0  0  0  0  0  0  0  0  0
    0.3020   -2.5070    0.0000 C   0  0  1  0  0  0  0  0  0  0  0  0
   -0.1830   -3.1745    0.0000 N   0  0  0  0  0  0  0  0  0  0  0  0
    0.1526   -3.9282    0.0000 C   0  0  0  0  0  0  0  0  0  0  0  0
    0.9731   -4.0144    0.0000 O   0  0  0  0  0  0  0  0  0  0  0  0
   -0.3323   -4.5956    0.0000 N   0  0  0  0  0  0  0  0  0  0  0  0
   -1.1528   -4.5094    0.0000 C   0  0  0  0  0  0  0  0  0  0  0  0
   -1.6377   -5.1768    0.0000 O   0  0  0  0  0  0  0  0  0  0  0  0
   -1.4884   -3.7557    0.0000 C   0  0  0  0  0  0  0  0  0  0  0  0
   -1.0034   -3.0882    0.0000 C   0  0  0  0  0  0  0  0  0  0  0  0
   -2.3088   -3.6695    0.0000 C   0  0  0  0  0  0  0  0  0  0  0  0
    0.0470   -1.7224    0.0000 C   0  0  0  0  0  0  0  0  0  0  0  0
    2.1665   -1.4675    0.0000 C   0  0  0  0  0  0  0  0  0  0  0  0
    2.7796   -2.0195    0.0000 O   0  0  0  0  0  0  0  0  0  0  0  0
    2.1434    0.4125    0.0000 N   0  5  0  0  0  0  0  0  0  0  0  0
  1  2  2  0  0  0  0
  3  2  1  6  0  0  0
  3  4  1  0  0  0  0
  4  5  1  0  0  0  0
  5  6  1  0  0  0  0
  6  7  1  1  0  0  0
  7  8  1  0  0  0  0
  8  9  2  0  0  0  0
  8 10  1  0  0  0  0
 10 11  1  0  0  0  0
 11 12  2  0  0  0  0
 11 13  1  0  0  0  0
 13 14  2  0  0  0  0
  7 14  1  0  0  0  0
 13 15  1  0  0  0  0
  6 16  1  0  0  0  0
  3 16  1  0  0  0  0
  4 17  1  1  0  0  0
 17 18  1  0  0  0  0
  1 19  2  0  0  0  0
M  CHG  2   1   1  19  -1
M  END
>  <Name>
Zidovudine

>  <CAS>
30516-87-1

>  <Formula>
C10H13N5O4

>  <MolWt>
267.24 

>  <Bioactivity>
A dideoxynucleoside compound in which the 3'-hydroxy group on the sugar moiety has been replaced by an azido group. This modification prevents the formation of phosphodiester linkages which are needed for the completion of nucleic acid chains. The compound is a potent inhibitor of HIV replication, acting as a chain-terminator of viral DNA during reverse transcription. It improves immunologic function, partially reverses the HIV-induced neurological dysfunction, and improves certain other clinical abnormalities associated with AIDS. Its principal toxic effect is dose-dependent suppression of bone marrow, resulting in anemia and leukopenia.


>  <Pathways>
DNA Damage/DNA Repair;Microbiology & Virology

>  <Target>
Reverse Transcriptase inhibitor

>  <Receptor>
Reverse Transcriptase, Telomerase reverse transcriptase

>  <Reference>
1. Barry M, et al. Clin Pharmacokinet. 1997 Mar;32(3):194-209.

$$$$
T1643
  Mrv1561503291623562D          

 18 19  0  0  0  0            999 V2000
   -3.4402   -1.8955    0.0000 C   0  0  0  0  0  0  0  0  0  0  0  0
   -3.9923   -2.5086    0.0000 N   0  0  0  0  0  0  0  0  0  0  0  0
   -3.5798   -3.2231    0.0000 C   0  0  0  0  0  0  0  0  0  0  0  0
   -2.7728   -3.0516    0.0000 C   0  0  0  0  0  0  0  0  0  0  0  0
   -2.6866   -2.2311    0.0000 N   0  0  0  0  0  0  0  0  0  0  0  0
   -1.9721   -1.8186    0.0000 C   0  0  0  0  0  0  0  0  0  0  0  0
   -1.9721   -0.9936    0.0000 C   0  0  0  0  0  0  0  0  0  0  0  0
   -1.2576   -0.5811    0.0000 C   0  0  0  0  0  0  0  0  0  0  0  0
   -1.2576    0.2439    0.0000 C   0  0  0  0  0  0  0  0  0  0  0  0
   -0.5432    0.6564    0.0000 O   0  0  0  0  0  0  0  0  0  0  0  0
   -0.5432   -0.9936    0.0000 C   0  0  0  0  0  0  0  0  0  0  0  0
   -0.5432   -1.8186    0.0000 O   0  0  0  0  0  0  0  0  0  0  0  0
   -2.2208   -3.6647    0.0000 N   0  0  0  0  0  0  0  0  0  0  0  0
   -2.4757   -4.4493    0.0000 C   0  0  0  0  0  0  0  0  0  0  0  0
   -3.2827   -4.6208    0.0000 N   0  0  0  0  0  0  0  0  0  0  0  0
   -3.8347   -4.0077    0.0000 C   0  0  0  0  0  0  0  0  0  0  0  0
   -4.6417   -4.1793    0.0000 O   0  0  0  0  0  0  0  0  0  0  0  0
   -1.9237   -5.0624    0.0000 N   0  0  0  0  0  0  0  0  0  0  0  0
  1  2  2  0  0  0  0
  2  3  1  0  0  0  0
  3  4  2  0  0  0  0
  4  5  1  0  0  0  0
  1  5  1  0  0  0  0
  5  6  1  0  0  0  0
  6  7  1  0  0  0  0
  7  8  1  0  0  0  0
  8  9  1  0  0  0  0
  9 10  1  0  0  0  0
  8 11  1  0  0  0  0
 11 12  1  0  0  0  0
  4 13  1  0  0  0  0
 13 14  1  0  0  0  0
 14 15  2  0  0  0  0
 15 16  1  0  0  0  0
  3 16  1  0  0  0  0
 16 17  2  0  0  0  0
 14 18  1  0  0  0  0
M  END
>  <Name>
Penciclovir

>  <CAS>
39809-25-1

>  <Formula>
C10H15N5O3

>  <MolWt>
253.26 

>  <Bioactivity>
Penciclovir is a guanine analogue antiviral drug used for the treatment of various herpesvirus infections. It is a nucleoside analogue which exhibits low toxicity and good selectivity. 

>  <Pathways>
DNA Damage/DNA Repair

>  <Target>
DNA synthesis inhibitor;Thymidine kinase inducer

>  <Receptor>
DNA polymerase;Thymidine kinase

>  <Reference>
1. Scott GM, et al. J Gen Virol. 2005 Aug;86(Pt 8):2141-51.

$$$$
T1647
  Mrv1561503291623562D          

 14 14  0  0  0  0            999 V2000
    0.9803   -0.1553    0.0000 C   0  0  0  0  0  0  0  0  0  0  0  0
    0.1553   -0.1553    0.0000 C   0  0  0  0  0  0  0  0  0  0  0  0
   -0.0997    0.6294    0.0000 N   0  0  0  0  0  0  0  0  0  0  0  0
    0.5678    1.1143    0.0000 C   0  0  0  0  0  0  0  0  0  0  0  0
    1.2352    0.6294    0.0000 N   0  0  0  0  0  0  0  0  0  0  0  0
    0.5678    1.9393    0.0000 C   0  0  0  0  0  0  0  0  0  0  0  0
    1.2822    2.3518    0.0000 O   0  0  0  0  0  0  0  0  0  0  0  0
    1.2822    3.1768    0.0000 C   0  0  0  0  0  0  0  0  0  0  0  0
    1.9967    3.5893    0.0000 N   0  0  0  0  0  0  0  0  0  0  0  0
    0.5678    3.5893    0.0000 O   0  0  0  0  0  0  0  0  0  0  0  0
   -0.8843    0.8843    0.0000 C   0  0  0  0  0  0  0  0  0  0  0  0
   -0.3297   -0.8227    0.0000 N   0  3  0  0  0  0  0  0  0  0  0  0
    0.0059   -1.5764    0.0000 O   0  0  0  0  0  0  0  0  0  0  0  0
   -1.1501   -0.7365    0.0000 O   0  5  0  0  0  0  0  0  0  0  0  0
  1  2  2  0  0  0  0
  2  3  1  0  0  0  0
  3  4  1  0  0  0  0
  4  5  2  0  0  0  0
  1  5  1  0  0  0  0
  4  6  1  0  0  0  0
  6  7  1  0  0  0  0
  7  8  1  0  0  0  0
  8  9  1  0  0  0  0
  8 10  2  0  0  0  0
  3 11  1  0  0  0  0
  2 12  1  0  0  0  0
 12 13  2  0  0  0  0
 12 14  1  0  0  0  0
M  CHG  2  12   1  14  -1
M  END
>  <Name>
Ronidazole

>  <CAS>
7681-76-7

>  <Formula>
C6H8N4O4

>  <MolWt>
200.15 

>  <Bioactivity>
Antiprotozoal and antimicrobial agent used mainly in veterinary practice.


>  <Pathways>
Microbiology & Virology

>  <Target>
Antiprotozoal

>  <Receptor>
Others

>  <Reference>
1. Sullivan TW, et al. Poult Sci. 1977 Mar;56(2):571-6.

$$$$
T2096
  Mrv1561503291623562D          

 47 49  0  0  1  0            999 V2000
   -0.3872    0.8636    0.0000 C   0  0  1  0  0  0  0  0  0  0  0  0
    0.3272    0.4511    0.0000 O   0  0  0  0  0  0  0  0  0  0  0  0
    0.3272   -0.3739    0.0000 C   0  0  2  0  0  0  0  0  0  0  0  0
   -0.3402   -0.8589    0.0000 O   0  0  0  0  0  0  0  0  0  0  0  0
   -0.0853   -1.6435    0.0000 C   0  0  1  0  0  0  0  0  0  0  0  0
    0.7397   -1.6435    0.0000 C   0  0  1  0  0  0  0  0  0  0  0  0
    1.2247   -2.3109    0.0000 O   0  0  0  0  0  0  0  0  0  0  0  0
    0.8891   -3.0646    0.0000 C   0  0  2  0  0  0  0  0  0  0  0  0
    0.0686   -3.1508    0.0000 O   0  0  0  0  0  0  0  0  0  0  0  0
   -0.2669   -3.9045    0.0000 C   0  0  1  0  0  0  0  0  0  0  0  0
    0.2180   -4.5719    0.0000 C   0  0  2  0  0  0  0  0  0  0  0  0
   -0.1176   -5.3256    0.0000 O   0  0  0  0  0  0  0  0  0  0  0  0
    1.0385   -4.4857    0.0000 C   0  0  1  0  0  0  0  0  0  0  0  0
    1.5234   -5.1531    0.0000 O   0  0  0  0  0  0  0  0  0  0  0  0
    1.3740   -3.7320    0.0000 C   0  0  2  0  0  0  0  0  0  0  0  0
    2.1945   -3.6458    0.0000 N   0  0  0  0  0  0  0  0  0  0  0  0
   -1.0874   -3.9907    0.0000 C   0  0  0  0  0  0  0  0  0  0  0  0
   -1.4230   -4.7444    0.0000 N   0  0  0  0  0  0  0  0  0  0  0  0
    0.9947   -0.8589    0.0000 C   0  0  1  0  0  0  0  0  0  0  0  0
    1.7793   -0.6039    0.0000 O   0  0  0  0  0  0  0  0  0  0  0  0
   -0.5702   -2.3109    0.0000 C   0  0  0  0  0  0  0  0  0  0  0  0
   -1.3907   -2.2247    0.0000 O   0  0  0  0  0  0  0  0  0  0  0  0
   -0.3872    1.6886    0.0000 C   0  0  2  0  0  0  0  0  0  0  0  0
    0.3272    2.1011    0.0000 O   0  0  0  0  0  0  0  0  0  0  0  0
    0.3272    2.9261    0.0000 C   0  0  1  0  0  0  0  0  0  0  0  0
   -0.3872    3.3386    0.0000 O   0  0  0  0  0  0  0  0  0  0  0  0
   -0.3872    4.1636    0.0000 C   0  0  1  0  0  0  0  0  0  0  0  0
    0.3272    4.5761    0.0000 C   0  0  1  0  0  0  0  0  0  0  0  0
    0.3272    5.4011    0.0000 O   0  0  0  0  0  0  0  0  0  0  0  0
    1.0417    4.1636    0.0000 C   0  0  2  0  0  0  0  0  0  0  0  0
    1.7562    4.5761    0.0000 O   0  0  0  0  0  0  0  0  0  0  0  0
    1.0417    3.3386    0.0000 C   0  0  1  0  0  0  0  0  0  0  0  0
    1.7562    2.9261    0.0000 N   0  0  0  0  0  0  0  0  0  0  0  0
   -1.1017    4.5761    0.0000 C   0  0  0  0  0  0  0  0  0  0  0  0
   -1.1017    5.4011    0.0000 N   0  0  0  0  0  0  0  0  0  0  0  0
   -1.1017    2.1011    0.0000 C   0  0  1  0  0  0  0  0  0  0  0  0
   -1.1017    2.9261    0.0000 N   0  0  0  0  0  0  0  0  0  0  0  0
   -1.8162    1.6886    0.0000 C   0  0  0  0  0  0  0  0  0  0  0  0
   -1.8162    0.8636    0.0000 C   0  0  1  0  0  0  0  0  0  0  0  0
   -2.5307    0.4511    0.0000 N   0  0  0  0  0  0  0  0  0  0  0  0
   -1.1017    0.4511    0.0000 C   0  0  2  0  0  0  0  0  0  0  0  0
   -1.1017   -0.3739    0.0000 O   0  0  0  0  0  0  0  0  0  0  0  0
    4.7874   -0.8250    0.0000 O   0  0  0  0  0  0  0  0  0  0  0  0
    4.7874    0.0000    0.0000 S   0  0  0  0  0  0  0  0  0  0  0  0
    4.7874    0.8250    0.0000 O   0  0  0  0  0  0  0  0  0  0  0  0
    5.6124   -0.0000    0.0000 O   0  0  0  0  0  0  0  0  0  0  0  0
    3.9624    0.0000    0.0000 O   0  0  0  0  0  0  0  0  0  0  0  0
  1  2  1  6  0  0  0
  3  2  1  1  0  0  0
  3  4  1  0  0  0  0
  4  5  1  0  0  0  0
  5  6  1  0  0  0  0
  6  7  1  6  0  0  0
  8  7  1  1  0  0  0
  8  9  1  0  0  0  0
  9 10  1  0  0  0  0
 10 11  1  0  0  0  0
 11 12  1  1  0  0  0
 11 13  1  0  0  0  0
 13 14  1  6  0  0  0
 13 15  1  0  0  0  0
  8 15  1  0  0  0  0
 15 16  1  1  0  0  0
 10 17  1  1  0  0  0
 17 18  1  0  0  0  0
  6 19  1  0  0  0  0
  3 19  1  0  0  0  0
 19 20  1  6  0  0  0
  5 21  1  1  0  0  0
 21 22  1  0  0  0  0
  1 23  1  0  0  0  0
 23 24  1  1  0  0  0
 25 24  1  1  0  0  0
 25 26  1  0  0  0  0
 26 27  1  0  0  0  0
 27 28  1  0  0  0  0
 28 29  1  1  0  0  0
 28 30  1  0  0  0  0
 30 31  1  6  0  0  0
 30 32  1  0  0  0  0
 25 32  1  0  0  0  0
 32 33  1  1  0  0  0
 27 34  1  6  0  0  0
 34 35  1  0  0  0  0
 23 36  1  0  0  0  0
 36 37  1  6  0  0  0
 36 38  1  0  0  0  0
 38 39  1  0  0  0  0
 39 40  1  6  0  0  0
 39 41  1  0  0  0  0
  1 41  1  0  0  0  0
 41 42  1  1  0  0  0
 43 44  2  0  0  0  0
 44 45  1  0  0  0  0
 44 46  1  0  0  0  0
 44 47  2  0  0  0  0
M  END
>  <Name>
Neomycin Sulphate B 

>  <CAS>
4146-30-9

>  <Formula>
C23H48N6O17S

>  <MolWt>
712.22 

>  <Bioactivity>
Neomycin belongs to aminoglycoside class of antibiotics that contain two or more aminosugars connected by glycosidic bonds. 

>  <Pathways>
Microbiology & Virology

>  <Target>
Antibiotic

>  <Receptor>
antibiotic

>  <Reference>
N/A

$$$$
118-10-5
  Mrv1561503291623562D          

 22 25  0  0  1  0            999 V2000
   -3.2839   -0.2459    0.0000 C   0  0  2  0  0  0  0  0  0  0  0  0
   -2.5694    0.1666    0.0000 N   0  0  0  0  0  0  0  0  0  0  0  0
   -1.8549   -0.2459    0.0000 C   0  0  0  0  0  0  0  0  0  0  0  0
   -1.8549   -1.0709    0.0000 C   0  0  2  0  0  0  0  0  0  0  0  0
   -1.1405   -1.4834    0.0000 C   0  0  0  0  0  0  0  0  0  0  0  0
   -1.1405   -2.3084    0.0000 C   0  0  0  0  0  0  0  0  0  0  0  0
   -2.5694   -1.4834    0.0000 C   0  0  2  0  0  0  0  0  0  0  0  0
   -3.2839   -1.0709    0.0000 C   0  0  0  0  0  0  0  0  0  0  0  0
   -2.4319   -0.9334    0.0000 C   0  0  0  0  0  0  0  0  0  0  0  0
   -2.4319   -0.3834    0.0000 C   0  0  0  0  0  0  0  0  0  0  0  0
   -3.9983    0.1666    0.0000 C   0  0  2  0  0  0  0  0  0  0  0  0
   -3.9983    0.9916    0.0000 C   0  0  0  0  0  0  0  0  0  0  0  0
   -3.2839    1.4041    0.0000 C   0  0  0  0  0  0  0  0  0  0  0  0
   -3.2839    2.2291    0.0000 C   0  0  0  0  0  0  0  0  0  0  0  0
   -3.9983    2.6416    0.0000 N   0  0  0  0  0  0  0  0  0  0  0  0
   -4.7128    2.2291    0.0000 C   0  0  0  0  0  0  0  0  0  0  0  0
   -4.7128    1.4041    0.0000 C   0  0  0  0  0  0  0  0  0  0  0  0
   -5.4273    0.9916    0.0000 C   0  0  0  0  0  0  0  0  0  0  0  0
   -6.1418    1.4041    0.0000 C   0  0  0  0  0  0  0  0  0  0  0  0
   -6.1418    2.2291    0.0000 C   0  0  0  0  0  0  0  0  0  0  0  0
   -5.4273    2.6416    0.0000 C   0  0  0  0  0  0  0  0  0  0  0  0
   -4.7128   -0.2459    0.0000 O   0  0  0  0  0  0  0  0  0  0  0  0
  1  2  1  0  0  0  0
  2  3  1  0  0  0  0
  3  4  1  0  0  0  0
  4  5  1  6  0  0  0
  5  6  2  0  0  0  0
  4  7  1  0  0  0  0
  7  8  1  0  0  0  0
  1  8  1  0  0  0  0
  7  9  1  1  0  0  0
  9 10  1  0  0  0  0
  2 10  1  0  0  0  0
  1 11  1  6  0  0  0
 11 12  1  0  0  0  0
 12 13  2  0  0  0  0
 13 14  1  0  0  0  0
 14 15  2  0  0  0  0
 15 16  1  0  0  0  0
 16 17  2  0  0  0  0
 12 17  1  0  0  0  0
 17 18  1  0  0  0  0
 18 19  2  0  0  0  0
 19 20  1  0  0  0  0
 20 21  2  0  0  0  0
 16 21  1  0  0  0  0
 11 22  1  1  0  0  0
M  END
>  <Name>
Cinchonine

>  <CAS>
118-10-5

>  <Formula>
C19H22N2O

>  <MolWt>
294.39 

>  <Bioactivity>
A local anesthetic of the amide type now generally used for surface anesthesia. It is one of the most potent and toxic of the long-acting local anesthetics and its parenteral use is restricted to spinal anesthesia.

>  <Pathways>
Membrane Transporter/Ion Channel

>  <Target>
Calmodulin inhibitor;Sodium Channel inhibitor

>  <Receptor>
Calmodulin;Sodium channel

>  <Reference>
1. Oka M, et al. Eur J Pharmacol. 2002 Oct 4;452(2):175-81.

$$$$
T0444
  Mrv1561503291623562D          

 24 26  0  0  0  0            999 V2000
   -1.4289   -2.4750    0.0000 C   0  0  0  0  0  0  0  0  0  0  0  0
   -0.7145   -2.0625    0.0000 C   0  0  0  0  0  0  0  0  0  0  0  0
   -0.0000   -2.4750    0.0000 C   0  0  0  0  0  0  0  0  0  0  0  0
   -0.0000   -3.3000    0.0000 C   0  0  0  0  0  0  0  0  0  0  0  0
   -0.7145   -3.7125    0.0000 N   0  0  0  0  0  0  0  0  0  0  0  0
   -0.8007   -4.5330    0.0000 C   0  0  0  0  0  0  0  0  0  0  0  0
   -1.6077   -4.7045    0.0000 C   0  0  0  0  0  0  0  0  0  0  0  0
   -2.0202   -3.9900    0.0000 N   0  0  0  0  0  0  0  0  0  0  0  0
   -1.4681   -3.3769    0.0000 C   0  0  0  0  0  0  0  0  0  0  0  0
    0.7145   -2.0625    0.0000 O   0  0  0  0  0  0  0  0  0  0  0  0
    1.4289   -2.4750    0.0000 C   0  0  0  0  0  0  0  0  0  0  0  0
    2.1434   -2.0625    0.0000 C   0  0  0  0  0  0  0  0  0  0  0  0
    2.1434   -1.2375    0.0000 C   0  0  0  0  0  0  0  0  0  0  0  0
    2.8579   -0.8250    0.0000 C   0  0  0  0  0  0  0  0  0  0  0  0
    3.5724   -1.2375    0.0000 C   0  0  0  0  0  0  0  0  0  0  0  0
    4.2868   -0.8250    0.0000 Cl  0  0  0  0  0  0  0  0  0  0  0  0
    3.5724   -2.0625    0.0000 C   0  0  0  0  0  0  0  0  0  0  0  0
    2.8579   -2.4750    0.0000 C   0  0  0  0  0  0  0  0  0  0  0  0
   -0.7145   -1.2375    0.0000 C   0  0  0  0  0  0  0  0  0  0  0  0
   -1.4289   -0.8250    0.0000 C   0  0  0  0  0  0  0  0  0  0  0  0
   -2.1434   -1.2375    0.0000 C   0  0  0  0  0  0  0  0  0  0  0  0
   -2.1434   -2.0625    0.0000 C   0  0  0  0  0  0  0  0  0  0  0  0
   -2.8579   -0.8250    0.0000 Cl  0  0  0  0  0  0  0  0  0  0  0  0
   -0.0000   -0.8250    0.0000 Cl  0  0  0  0  0  0  0  0  0  0  0  0
  1  2  2  0  0  0  0
  2  3  1  0  0  0  0
  3  4  1  0  0  0  0
  4  5  1  0  0  0  0
  5  6  1  0  0  0  0
  6  7  2  0  0  0  0
  7  8  1  0  0  0  0
  8  9  2  0  0  0  0
  5  9  1  0  0  0  0
  3 10  1  0  0  0  0
 10 11  1  0  0  0  0
 11 12  1  0  0  0  0
 12 13  2  0  0  0  0
 13 14  1  0  0  0  0
 14 15  2  0  0  0  0
 15 16  1  0  0  0  0
 15 17  1  0  0  0  0
 17 18  2  0  0  0  0
 12 18  1  0  0  0  0
  2 19  1  0  0  0  0
 19 20  2  0  0  0  0
 20 21  1  0  0  0  0
 21 22  2  0  0  0  0
  1 22  1  0  0  0  0
 21 23  1  0  0  0  0
 19 24  1  0  0  0  0
M  END
>  <Name>
Econazole

>  <CAS>
27220-47-9

>  <Formula>
C18H15Cl3N2O

>  <MolWt>
381.68 

>  <Bioactivity>
A broad spectrum antimycotic with some action against Gram positive bacteria. It is used topically in dermatomycoses also orally and parenterally. 

>  <Pathways>
Microbiology & Virology

>  <Target>
Antifungal

>  <Receptor>
14-? Demethylase

>  <Reference>
1. Ge S, et al.  Int J Pharm. 2014 Apr 25; 465(1-2):120-31.

$$$$
T0454
  Mrv1561503291623562D          

 21 21  0  0  1  0            999 V2000
    4.6184   -2.2836    0.0000 C   0  0  2  0  0  0  0  0  0  0  0  0
    5.4434   -2.2836    0.0000 C   0  0  0  0  0  0  0  0  0  0  0  0
    5.8559   -1.5691    0.0000 C   0  0  0  0  0  0  0  0  0  0  0  0
    6.6809   -1.5691    0.0000 C   0  0  0  0  0  0  0  0  0  0  0  0
    7.0934   -2.2836    0.0000 C   0  0  0  0  0  0  0  0  0  0  0  0
    6.6809   -2.9980    0.0000 C   0  0  0  0  0  0  0  0  0  0  0  0
    5.8559   -2.9980    0.0000 C   0  0  0  0  0  0  0  0  0  0  0  0
    7.9184   -2.2836    0.0000 S   0  0  0  0  0  0  0  0  0  0  0  0
    8.7434   -2.2836    0.0000 C   0  0  0  0  0  0  0  0  0  0  0  0
    7.9184   -1.4586    0.0000 O   0  0  0  0  0  0  0  0  0  0  0  0
    7.9184   -3.1086    0.0000 O   0  0  0  0  0  0  0  0  0  0  0  0
    4.2059   -2.9980    0.0000 C   0  0  2  0  0  0  0  0  0  0  0  0
    3.3809   -2.9980    0.0000 N   0  0  0  0  0  0  0  0  0  0  0  0
    2.9684   -3.7125    0.0000 C   0  0  0  0  0  0  0  0  0  0  0  0
    2.1434   -3.7125    0.0000 C   0  0  0  0  0  0  0  0  0  0  0  0
    1.7309   -4.4270    0.0000 Cl  0  0  0  0  0  0  0  0  0  0  0  0
    1.7309   -2.9980    0.0000 Cl  0  0  0  0  0  0  0  0  0  0  0  0
    3.3809   -4.4270    0.0000 O   0  0  0  0  0  0  0  0  0  0  0  0
    4.6184   -3.7125    0.0000 C   0  0  0  0  0  0  0  0  0  0  0  0
    4.2059   -4.4270    0.0000 F   0  0  0  0  0  0  0  0  0  0  0  0
    4.2059   -1.5691    0.0000 O   0  0  0  0  0  0  0  0  0  0  0  0
  1  2  1  0  0  0  0
  2  3  2  0  0  0  0
  3  4  1  0  0  0  0
  4  5  2  0  0  0  0
  5  6  1  0  0  0  0
  6  7  2  0  0  0  0
  2  7  1  0  0  0  0
  5  8  1  0  0  0  0
  8  9  1  0  0  0  0
  8 10  2  0  0  0  0
  8 11  2  0  0  0  0
  1 12  1  0  0  0  0
 12 13  1  1  0  0  0
 13 14  1  0  0  0  0
 14 15  1  0  0  0  0
 15 16  1  0  0  0  0
 15 17  1  0  0  0  0
 14 18  2  0  0  0  0
 12 19  1  0  0  0  0
 19 20  1  0  0  0  0
  1 21  1  6  0  0  0
M  END
>  <Name>
Florfenicol

>  <CAS>
76639-94-6

>  <Formula>
C12H14Cl2FNO4S

>  <MolWt>
358.21 

>  <Bioactivity>
Florfenicol is a fluorinated synthetic analog of thiamphenicol. In the United States, florfenicol is currently indicated for the treatment of bovine respiratory disease (BRD) associated with Mannheimia (Pasteurella) haemolytica, Pasteurella multocida, and Haemophilus somnus, for treatment of bovine interdigital phlegmon (foot rot, acute interdigital necrobacillosis, infectious pododermatitis) associated with Fusobacterium necrophorum and Bacteroides melaninogenicus. Florfenicol is also used in aquaculture, and is licensed for use in the United States for the control of enteric septicemia in catfish.

>  <Pathways>
Microbiology & Virology

>  <Target>
Antibiotic

>  <Receptor>
Others

>  <Reference>
1. Thiry J, et al. Vet Rec. 2014 Apr 26; 174(17):430. 

$$$$
73963-72-1
  Mrv1561503291623562D          

 27 30  0  0  0  0            999 V2000
   -2.8579   -1.6500    0.0000 C   0  0  0  0  0  0  0  0  0  0  0  0
   -2.1434   -1.2375    0.0000 C   0  0  0  0  0  0  0  0  0  0  0  0
   -1.4289   -1.6500    0.0000 O   0  0  0  0  0  0  0  0  0  0  0  0
   -0.7145   -1.2375    0.0000 C   0  0  0  0  0  0  0  0  0  0  0  0
   -0.0000   -1.6500    0.0000 C   0  0  0  0  0  0  0  0  0  0  0  0
    0.7145   -1.2375    0.0000 C   0  0  0  0  0  0  0  0  0  0  0  0
    1.4289   -1.6500    0.0000 C   0  0  0  0  0  0  0  0  0  0  0  0
    2.1434   -1.2375    0.0000 C   0  0  0  0  0  0  0  0  0  0  0  0
    2.2296   -0.4170    0.0000 N   0  0  0  0  0  0  0  0  0  0  0  0
    3.0366   -0.2455    0.0000 N   0  0  0  0  0  0  0  0  0  0  0  0
    3.4491   -0.9600    0.0000 N   0  0  0  0  0  0  0  0  0  0  0  0
    2.8971   -1.5731    0.0000 N   0  0  0  0  0  0  0  0  0  0  0  0
    3.0686   -2.3800    0.0000 C   0  0  0  0  0  0  0  0  0  0  0  0
    3.8532   -2.6350    0.0000 C   0  0  0  0  0  0  0  0  0  0  0  0
    4.0248   -3.4419    0.0000 C   0  0  0  0  0  0  0  0  0  0  0  0
    3.4117   -3.9940    0.0000 C   0  0  0  0  0  0  0  0  0  0  0  0
    2.6270   -3.7390    0.0000 C   0  0  0  0  0  0  0  0  0  0  0  0
    2.4555   -2.9321    0.0000 C   0  0  0  0  0  0  0  0  0  0  0  0
   -2.1434   -0.4125    0.0000 C   0  0  0  0  0  0  0  0  0  0  0  0
   -2.8579    0.0000    0.0000 C   0  0  0  0  0  0  0  0  0  0  0  0
   -3.5724   -0.4125    0.0000 C   0  0  0  0  0  0  0  0  0  0  0  0
   -3.5724   -1.2375    0.0000 C   0  0  0  0  0  0  0  0  0  0  0  0
   -4.2868   -1.6500    0.0000 C   0  0  0  0  0  0  0  0  0  0  0  0
   -5.0013   -1.2375    0.0000 C   0  0  0  0  0  0  0  0  0  0  0  0
   -5.0013   -0.4125    0.0000 C   0  0  0  0  0  0  0  0  0  0  0  0
   -4.2868    0.0000    0.0000 N   0  0  0  0  0  0  0  0  0  0  0  0
   -5.7158    0.0000    0.0000 O   0  0  0  0  0  0  0  0  0  0  0  0
  1  2  2  0  0  0  0
  2  3  1  0  0  0  0
  3  4  1  0  0  0  0
  4  5  1  0  0  0  0
  5  6  1  0  0  0  0
  6  7  1  0  0  0  0
  7  8  1  0  0  0  0
  8  9  2  0  0  0  0
  9 10  1  0  0  0  0
 10 11  2  0  0  0  0
 11 12  1  0  0  0  0
  8 12  1  0  0  0  0
 12 13  1  0  0  0  0
 13 14  1  0  0  0  0
 14 15  1  0  0  0  0
 15 16  1  0  0  0  0
 16 17  1  0  0  0  0
 17 18  1  0  0  0  0
 13 18  1  0  0  0  0
  2 19  1  0  0  0  0
 19 20  2  0  0  0  0
 20 21  1  0  0  0  0
 21 22  2  0  0  0  0
  1 22  1  0  0  0  0
 22 23  1  0  0  0  0
 23 24  1  0  0  0  0
 24 25  1  0  0  0  0
 25 26  1  0  0  0  0
 21 26  1  0  0  0  0
 25 27  2  0  0  0  0
M  END
>  <Name>
Cilostazol

>  <CAS>
73963-72-1

>  <Formula>
C20H27N5O2

>  <MolWt>
369.46 

>  <Bioactivity>
Cilostazol is a medication used in the alleviation of the symptom of intermittent claudication in individuals with peripheral vascular disease. It is manufactured by Otsuka Pharmaceutical Co. under the trade name Pletal. Although drugs similar to cilostazol have increased the risk of death in patients with congestive heart failure, studies of significant size have not addressed people without the disease.  

>  <Pathways>
Metabolism

>  <Target>
PDE inhibitor

>  <Receptor>
PDE3

>  <Reference>
1. Rondina MT, Weyrich AS. Handb Exp Pharmacol 2012(210):225-238.

$$$$
T1143
  Mrv1561503291623562D          

 28 28  0  0  1  0            999 V2000
    0.6531   -2.7641    0.0000 C   0  0  0  0  0  0  0  0  0  0  0  0
    0.6963   -3.5880    0.0000 S   0  0  0  0  0  0  0  0  0  0  0  0
   -0.0739   -3.8836    0.0000 C   0  0  0  0  0  0  0  0  0  0  0  0
   -0.5931   -3.2425    0.0000 C   0  0  0  0  0  0  0  0  0  0  0  0
   -0.1438   -2.5506    0.0000 N   0  0  0  0  0  0  0  0  0  0  0  0
    0.0698   -1.7537    0.0000 C   0  0  0  0  0  0  0  0  0  0  0  0
   -0.3427   -1.0392    0.0000 O   0  0  0  0  0  0  0  0  0  0  0  0
    0.8666   -1.9672    0.0000 C   0  0  0  0  0  0  0  0  0  0  0  0
    1.5811   -1.5547    0.0000 N   0  0  0  0  0  0  0  0  0  0  0  0
    1.5811   -0.7297    0.0000 C   0  0  0  0  0  0  0  0  0  0  0  0
    0.8666   -0.3172    0.0000 O   0  0  0  0  0  0  0  0  0  0  0  0
    2.2956   -0.3172    0.0000 C   0  0  0  0  0  0  0  0  0  0  0  0
    2.2956    0.5078    0.0000 C   0  0  0  0  0  0  0  0  0  0  0  0
    1.5811    0.9203    0.0000 C   0  0  0  0  0  0  0  0  0  0  0  0
    1.5811    1.7453    0.0000 C   0  0  0  0  0  0  0  0  0  0  0  0
    2.2956    2.1578    0.0000 C   0  0  0  0  0  0  0  0  0  0  0  0
    3.0101    1.7453    0.0000 C   0  0  0  0  0  0  0  0  0  0  0  0
    3.0101    0.9203    0.0000 C   0  0  0  0  0  0  0  0  0  0  0  0
    3.0101   -0.7297    0.0000 C   0  0  0  0  0  0  0  0  0  0  0  0
    3.0101   -1.5547    0.0000 O   0  5  0  0  0  0  0  0  0  0  0  0
    3.7245   -0.3172    0.0000 O   0  0  0  0  0  0  0  0  0  0  0  0
   -1.4170   -3.2856    0.0000 C   0  0  0  0  0  0  0  0  0  0  0  0
   -1.7915   -4.0207    0.0000 O   0  5  0  0  0  0  0  0  0  0  0  0
   -1.8663   -2.5937    0.0000 O   0  0  0  0  0  0  0  0  0  0  0  0
    0.1313   -4.6827    0.0000 C   0  0  0  0  0  0  0  0  0  0  0  0
   -0.6511   -4.4731    0.0000 C   0  0  0  0  0  0  0  0  0  0  0  0
    3.0101   -2.3797    0.0000 Na  0  3  0  0  0  0  0  0  0  0  0  0
   -2.1660   -4.7558    0.0000 Na  0  3  0  0  0  0  0  0  0  0  0  0
  1  2  1  0  0  0  0
  2  3  1  0  0  0  0
  3  4  1  0  0  0  0
  4  5  1  0  0  0  0
  1  5  1  0  0  0  0
  5  6  1  0  0  0  0
  6  7  2  0  0  0  0
  6  8  1  0  0  0  0
  1  8  1  0  0  0  0
  8  9  1  0  0  0  0
  9 10  1  0  0  0  0
 10 11  2  0  0  0  0
 10 12  1  0  0  0  0
 12 13  1  0  0  0  0
 13 14  2  0  0  0  0
 14 15  1  0  0  0  0
 15 16  2  0  0  0  0
 16 17  1  0  0  0  0
 17 18  2  0  0  0  0
 13 18  1  0  0  0  0
 12 19  1  0  0  0  0
 19 20  1  0  0  0  0
 19 21  2  0  0  0  0
  4 22  1  0  0  0  0
 22 23  1  0  0  0  0
 22 24  2  0  0  0  0
  3 25  1  0  0  0  0
  3 26  1  0  0  0  0
M  CHG  4  20  -1  23  -1  27   1  28   1
M  END
>  <Name>
Carbenicillin disodium

>  <CAS>
4800-94-6

>  <Formula>
C17H16N2Na2O6S

>  <MolWt>
422.36 

>  <Bioactivity>
Carbenicillin inhibits the cell-wall synthesis (peptidoglycan cross-linking) by inactivating transpeptidase on the inner surface of the bacterial cell membrane. Carbenicillin is a white to slightly yellow, hygroscopic powder soluble in water and in alcohol. Carbenicillin is most effective against gram-negative bacteria but may also have some effect against gram-positive bacteria. 

>  <Pathways>
Microbiology & Virology

>  <Target>
Antibiotic

>  <Receptor>
cell wall

>  <Reference>
1. Sarma KS, et al. Journal of Experimental Botany, 1995, 46(11), 1779-1781.

$$$$
T1557
  Mrv1561503291623562D          

 62 65  0  0  1  0            999 V2000
    4.2868   -2.4750    0.0000 C   0  0  2  0  0  0  0  0  0  0  0  0
    5.0013   -2.8875    0.0000 O   0  0  0  0  0  0  0  0  0  0  0  0
    5.0013   -3.7125    0.0000 C   0  0  1  0  0  0  0  0  0  0  0  0
    4.2868   -4.1250    0.0000 C   0  0  1  0  0  0  0  0  0  0  0  0
    4.2868   -4.9500    0.0000 O   0  0  0  0  0  0  0  0  0  0  0  0
    5.0013   -5.3625    0.0000 C   0  0  2  0  0  0  0  0  0  0  0  0
    5.0013   -6.1875    0.0000 O   0  0  0  0  0  0  0  0  0  0  0  0
    5.7158   -6.6000    0.0000 C   0  0  2  0  0  0  0  0  0  0  0  0
    6.4302   -6.1875    0.0000 C   0  0  2  0  0  0  0  0  0  0  0  0
    7.1447   -6.6000    0.0000 O   0  0  0  0  0  0  0  0  0  0  0  0
    6.4302   -5.3625    0.0000 C   0  0  2  0  0  0  0  0  0  0  0  0
    7.2427   -5.5058    0.0000 O   0  0  0  0  0  0  0  0  0  0  0  0
    5.7158   -4.9500    0.0000 C   0  0  0  0  0  0  0  0  0  0  0  0
    6.7124   -4.5873    0.0000 C   0  0  0  0  0  0  0  0  0  0  0  0
    5.7158   -7.4250    0.0000 C   0  0  0  0  0  0  0  0  0  0  0  0
    3.5724   -3.7125    0.0000 C   0  0  2  0  0  0  0  0  0  0  0  0
    2.8579   -4.1250    0.0000 N   0  0  0  0  0  0  0  0  0  0  0  0
    2.1434   -3.7125    0.0000 C   0  0  0  0  0  0  0  0  0  0  0  0
    2.8579   -4.9500    0.0000 C   0  0  0  0  0  0  0  0  0  0  0  0
    3.5724   -2.8875    0.0000 C   0  0  1  0  0  0  0  0  0  0  0  0
    2.8579   -2.4750    0.0000 O   0  0  0  0  0  0  0  0  0  0  0  0
    5.7158   -4.1250    0.0000 C   0  0  0  0  0  0  0  0  0  0  0  0
    4.2868   -1.6500    0.0000 O   0  0  0  0  0  0  0  0  0  0  0  0
    5.0013   -1.2375    0.0000 C   0  0  2  0  0  0  0  0  0  0  0  0
    5.0013   -0.4125    0.0000 C   0  0  1  0  0  0  0  0  0  0  0  0
    4.2868   -0.8250    0.0000 O   0  0  0  0  0  0  0  0  0  0  0  0
    3.4663   -0.9112    0.0000 C   0  0  0  0  0  0  0  0  0  0  0  0
    4.2868   -0.0000    0.0000 C   0  0  2  0  0  0  0  0  0  0  0  0
    3.5724   -0.4125    0.0000 O   0  0  0  0  0  0  0  0  0  0  0  0
    2.8579   -0.0000    0.0000 C   0  0  0  0  0  0  0  0  0  0  0  0
    2.1434   -0.4125    0.0000 O   0  0  0  0  0  0  0  0  0  0  0  0
    2.8579    0.8250    0.0000 C   0  0  0  0  0  0  0  0  0  0  0  0
    4.2868    0.8250    0.0000 C   0  0  0  0  0  0  0  0  0  0  0  0
    5.0013    1.2375    0.0000 C   0  0  0  0  0  0  0  0  0  0  0  0
    5.0013    2.0625    0.0000 O   0  0  0  0  0  0  0  0  0  0  0  0
    5.7158    2.4750    0.0000 C   0  0  1  0  0  0  0  0  0  0  0  0
    6.4302    2.0625    0.0000 C   0  0  0  0  0  0  0  0  0  0  0  0
    6.4302    1.2375    0.0000 C   0  0  0  0  0  0  0  0  0  0  0  0
    7.1447    0.8250    0.0000 C   0  0  0  0  0  0  0  0  0  0  0  0
    7.1447    0.0000    0.0000 C   0  0  0  0  0  0  0  0  0  0  0  0
    7.8592   -0.4125    0.0000 C   0  0  0  0  0  0  0  0  0  0  0  0
    7.8592   -1.2375    0.0000 C   0  0  2  0  0  0  0  0  0  0  0  0
    8.5737   -1.6500    0.0000 O   0  0  0  0  0  0  0  0  0  0  0  0
    9.2881   -1.2375    0.0000 C   0  0  2  0  0  0  0  0  0  0  0  0
    9.2881   -0.4125    0.0000 O   0  0  0  0  0  0  0  0  0  0  0  0
   10.0026    0.0000    0.0000 C   0  0  2  0  0  0  0  0  0  0  0  0
   10.7171   -0.4125    0.0000 C   0  0  1  0  0  0  0  0  0  0  0  0
   11.4315    0.0000    0.0000 N   0  0  0  0  0  0  0  0  0  0  0  0
   11.4315    0.8250    0.0000 C   0  0  0  0  0  0  0  0  0  0  0  0
   12.1460   -0.4125    0.0000 C   0  0  0  0  0  0  0  0  0  0  0  0
   10.7171   -1.2375    0.0000 C   0  0  0  0  0  0  0  0  0  0  0  0
   10.0026   -1.6500    0.0000 C   0  0  0  0  0  0  0  0  0  0  0  0
   10.0026    0.8250    0.0000 C   0  0  0  0  0  0  0  0  0  0  0  0
    7.1447   -1.6500    0.0000 C   0  0  1  0  0  0  0  0  0  0  0  0
    6.4302   -1.2375    0.0000 C   0  0  0  0  0  0  0  0  0  0  0  0
    5.7158   -1.6500    0.0000 C   0  0  2  0  0  0  0  0  0  0  0  0
    5.7158   -2.4750    0.0000 C   0  0  0  0  0  0  0  0  0  0  0  0
    6.4302   -2.8875    0.0000 C   0  0  0  0  0  0  0  0  0  0  0  0
    6.4302   -3.7125    0.0000 O   0  0  0  0  0  0  0  0  0  0  0  0
    7.1447   -2.4750    0.0000 C   0  0  0  0  0  0  0  0  0  0  0  0
    5.7158    3.3000    0.0000 C   0  0  0  0  0  0  0  0  0  0  0  0
    5.7158    0.8250    0.0000 O   0  0  0  0  0  0  0  0  0  0  0  0
  1  2  1  0  0  0  0
  2  3  1  0  0  0  0
  3  4  1  0  0  0  0
  4  5  1  1  0  0  0
  6  5  1  1  0  0  0
  6  7  1  0  0  0  0
  7  8  1  0  0  0  0
  8  9  1  0  0  0  0
  9 10  1  1  0  0  0
  9 11  1  0  0  0  0
 11 12  1  1  0  0  0
 11 13  1  0  0  0  0
  6 13  1  0  0  0  0
 11 14  1  6  0  0  0
  8 15  1  6  0  0  0
  4 16  1  0  0  0  0
 16 17  1  6  0  0  0
 17 18  1  0  0  0  0
 17 19  1  0  0  0  0
 16 20  1  0  0  0  0
  1 20  1  0  0  0  0
 20 21  1  1  0  0  0
  3 22  1  6  0  0  0
  1 23  1  6  0  0  0
 24 23  1  6  0  0  0
 24 25  1  0  0  0  0
 25 26  1  6  0  0  0
 26 27  1  0  0  0  0
 25 28  1  0  0  0  0
 28 29  1  6  0  0  0
 29 30  1  0  0  0  0
 30 31  2  0  0  0  0
 30 32  1  0  0  0  0
 28 33  1  0  0  0  0
 33 34  1  0  0  0  0
 34 35  1  0  0  0  0
 35 36  1  0  0  0  0
 36 37  1  0  0  0  0
 37 38  1  0  0  0  0
 38 39  2  0  0  0  0
 39 40  1  0  0  0  0
 40 41  2  0  0  0  0
 41 42  1  0  0  0  0
 42 43  1  6  0  0  0
 44 43  1  6  0  0  0
 44 45  1  0  0  0  0
 45 46  1  0  0  0  0
 46 47  1  0  0  0  0
 47 48  1  1  0  0  0
 48 49  1  0  0  0  0
 48 50  1  0  0  0  0
 47 51  1  0  0  0  0
 51 52  1  0  0  0  0
 44 52  1  0  0  0  0
 46 53  1  1  0  0  0
 42 54  1  0  0  0  0
 54 55  1  0  0  0  0
 55 56  1  0  0  0  0
 24 56  1  0  0  0  0
 56 57  1  6  0  0  0
 57 58  1  0  0  0  0
 58 59  2  0  0  0  0
 54 60  1  6  0  0  0
 36 61  1  6  0  0  0
 34 62  2  0  0  0  0
M  END
>  <Name>
Acetylspiramycin

>  <CAS>
24916-51-6

>  <Formula>
C45H76N2O15

>  <MolWt>
885.09 

>  <Bioactivity>
Acetylspiramycin targets 50S ribosome to inhibit protein synthesis.

>  <Pathways>
Microbiology & Virology

>  <Target>
Antibiotic

>  <Receptor>
50S ribosome

>  <Reference>
1. Kondo A, et al. Jpn J Antibiot. 1990 Sep;43(9):1521-9.

$$$$
T0690
  Mrv1561503291623562D          

 24 27  0  0  0  0            999 V2000
   -6.8562   -1.8166    0.0000 C   0  0  0  0  0  0  0  0  0  0  0  0
   -6.1418   -1.4041    0.0000 O   0  0  0  0  0  0  0  0  0  0  0  0
   -5.4273   -1.8166    0.0000 C   0  0  0  0  0  0  0  0  0  0  0  0
   -4.7128   -1.4041    0.0000 C   0  0  0  0  0  0  0  0  0  0  0  0
   -3.9983   -1.8166    0.0000 C   0  0  0  0  0  0  0  0  0  0  0  0
   -3.2839   -1.4041    0.0000 C   0  0  0  0  0  0  0  0  0  0  0  0
   -2.5694   -1.8166    0.0000 C   0  0  0  0  0  0  0  0  0  0  0  0
   -2.5694   -2.6416    0.0000 C   0  0  0  0  0  0  0  0  0  0  0  0
   -3.2839   -3.0541    0.0000 N   0  0  0  0  0  0  0  0  0  0  0  0
   -3.9983   -2.6416    0.0000 C   0  0  0  0  0  0  0  0  0  0  0  0
   -4.7128   -3.0541    0.0000 C   0  0  0  0  0  0  0  0  0  0  0  0
   -5.4273   -2.6416    0.0000 C   0  0  0  0  0  0  0  0  0  0  0  0
   -3.2839   -0.5791    0.0000 C   0  0  0  0  0  0  0  0  0  0  0  0
   -2.5694   -0.1666    0.0000 C   0  0  0  0  0  0  0  0  0  0  0  0
   -2.5694    0.6584    0.0000 C   0  0  0  0  0  0  0  0  0  0  0  0
   -1.8549    1.0709    0.0000 C   0  0  0  0  0  0  0  0  0  0  0  0
   -1.7174    0.5209    0.0000 C   0  0  0  0  0  0  0  0  0  0  0  0
   -1.7174   -0.0291    0.0000 C   0  0  0  0  0  0  0  0  0  0  0  0
   -1.8549   -0.5791    0.0000 N   0  0  0  0  0  0  0  0  0  0  0  0
   -1.1405   -0.1666    0.0000 C   0  0  0  0  0  0  0  0  0  0  0  0
   -1.1405    0.6584    0.0000 C   0  0  0  0  0  0  0  0  0  0  0  0
   -0.4260    1.0709    0.0000 C   0  0  0  0  0  0  0  0  0  0  0  0
   -0.4260    1.8959    0.0000 C   0  0  0  0  0  0  0  0  0  0  0  0
   -3.9983   -0.1666    0.0000 O   0  0  0  0  0  0  0  0  0  0  0  0
  1  2  1  0  0  0  0
  2  3  1  0  0  0  0
  3  4  2  0  0  0  0
  4  5  1  0  0  0  0
  5  6  2  0  0  0  0
  6  7  1  0  0  0  0
  7  8  2  0  0  0  0
  8  9  1  0  0  0  0
  9 10  2  0  0  0  0
  5 10  1  0  0  0  0
 10 11  1  0  0  0  0
 11 12  2  0  0  0  0
  3 12  1  0  0  0  0
  6 13  1  0  0  0  0
 13 14  1  0  0  0  0
 14 15  1  0  0  0  0
 15 16  1  0  0  0  0
 16 17  1  0  0  0  0
 17 18  1  0  0  0  0
 18 19  1  0  0  0  0
 14 19  1  0  0  0  0
 19 20  1  0  0  0  0
 20 21  1  0  0  0  0
 16 21  1  0  0  0  0
 21 22  1  0  0  0  0
 22 23  2  0  0  0  0
 13 24  1  0  0  0  0
M  END
>  <Name>
Quinine

>  <CAS>
130-95-0

>  <Formula>
C20H24N2O2

>  <MolWt>
324.42 

>  <Bioactivity>
An alkaloid derived from the bark of the cinchona tree. It is used as an antimalarial drug, and is the active ingredient in extracts of the cinchona that have been used for that purpose since before 1633. Quinine is also a mild antipyretic and analgesic and has been used in common cold preparations for that purpose. It was used commonly and as a bitter and flavoring agent, and is still useful for the treatment of babesiosis. Quinine is also useful in some muscular disorders, especially nocturnal leg cramps and myotonia congenita, because of its direct effects on muscle membrane and sodium channels. The mechanisms of its antimalarial effects are not well understood.  

>  <Pathways>
Others

>  <Target>
Fe(II)-protoporphyrin IX;Platelet glycoprotein IX;Potassium Channel inhibitor

>  <Receptor>
Fe(II)-protoporphyrin IX;Platelet glycoprotein IX;Potassium Channel

>  <Reference>
1. Alumasa JN, et al. J Inorg Biochem. 2010 Sep 21.

$$$$
103-33-3
  Mrv1561503291623562D          

 14 15  0  0  0  0            999 V2000
    0.7145   -2.8875    0.0000 C   0  0  0  0  0  0  0  0  0  0  0  0
    1.4289   -2.4750    0.0000 C   0  0  0  0  0  0  0  0  0  0  0  0
    2.1434   -2.8875    0.0000 C   0  0  0  0  0  0  0  0  0  0  0  0
    2.1434   -3.7125    0.0000 C   0  0  0  0  0  0  0  0  0  0  0  0
    1.4289   -4.1250    0.0000 C   0  0  0  0  0  0  0  0  0  0  0  0
    0.7145   -3.7125    0.0000 C   0  0  0  0  0  0  0  0  0  0  0  0
    1.4289   -1.6500    0.0000 N   0  0  0  0  0  0  0  0  0  0  0  0
    0.7145   -1.2375    0.0000 N   0  0  0  0  0  0  0  0  0  0  0  0
    0.7145   -0.4125    0.0000 C   0  0  0  0  0  0  0  0  0  0  0  0
    0.0000    0.0000    0.0000 C   0  0  0  0  0  0  0  0  0  0  0  0
    0.0000    0.8250    0.0000 C   0  0  0  0  0  0  0  0  0  0  0  0
    0.7145    1.2375    0.0000 C   0  0  0  0  0  0  0  0  0  0  0  0
    1.4289    0.8250    0.0000 C   0  0  0  0  0  0  0  0  0  0  0  0
    1.4289   -0.0000    0.0000 C   0  0  0  0  0  0  0  0  0  0  0  0
  1  2  2  0  0  0  0
  2  3  1  0  0  0  0
  3  4  2  0  0  0  0
  4  5  1  0  0  0  0
  5  6  2  0  0  0  0
  1  6  1  0  0  0  0
  7  2  1  4  0  0  0
  7  8  2  0  0  0  0
  8  9  1  0  0  0  0
  9 10  2  0  0  0  0
 10 11  1  0  0  0  0
 11 12  2  0  0  0  0
 12 13  1  0  0  0  0
 13 14  2  0  0  0  0
  9 14  1  0  0  0  0
M  END
>  <Name>
Azobenzene

>  <CAS>
103-33-3

>  <Formula>
C12H10N2

>  <MolWt>
182.22 

>  <Bioactivity>
Azobenzene is a chemical compound composed of two phenyl rings linked by a N=N double bond. It is the simplest example of an aryl azo compound. The term 'azobenzene' or simply 'azo' is often used to refer to a wide class of molecules that share the core azobenzene structure, with different chemical functional groups extending from the phenyl rings. 

>  <Pathways>
Others

>  <Target>
Intermediates

>  <Receptor>
Others

>  <Reference>
1. Wu L, et al. Bioconjug Chem. 2015 Jun 17;26(6):1070-9.

$$$$
60-87-7
  Mrv1561503291623562D          

 20 22  0  0  0  0            999 V2000
    3.5724    1.2375    0.0000 C   0  0  0  0  0  0  0  0  0  0  0  0
    4.2868    0.8250    0.0000 C   0  0  0  0  0  0  0  0  0  0  0  0
    4.2868   -0.0000    0.0000 C   0  0  0  0  0  0  0  0  0  0  0  0
    3.5724   -0.4125    0.0000 C   0  0  0  0  0  0  0  0  0  0  0  0
    2.8579   -0.0000    0.0000 C   0  0  0  0  0  0  0  0  0  0  0  0
    2.8579    0.8250    0.0000 C   0  0  0  0  0  0  0  0  0  0  0  0
    2.1434    1.2375    0.0000 N   0  0  0  0  0  0  0  0  0  0  0  0
    1.4289    0.8250    0.0000 C   0  0  0  0  0  0  0  0  0  0  0  0
    1.4289   -0.0000    0.0000 C   0  0  0  0  0  0  0  0  0  0  0  0
    2.1434   -0.4125    0.0000 S   0  0  0  0  0  0  0  0  0  0  0  0
    0.7145   -0.4125    0.0000 C   0  0  0  0  0  0  0  0  0  0  0  0
   -0.0000    0.0000    0.0000 C   0  0  0  0  0  0  0  0  0  0  0  0
    0.0000    0.8250    0.0000 C   0  0  0  0  0  0  0  0  0  0  0  0
    0.7145    1.2375    0.0000 C   0  0  0  0  0  0  0  0  0  0  0  0
    2.1434    2.0625    0.0000 C   0  0  0  0  0  0  0  0  0  0  0  0
    1.4289    2.4750    0.0000 C   0  0  0  0  0  0  0  0  0  0  0  0
    0.7145    2.0625    0.0000 C   0  0  0  0  0  0  0  0  0  0  0  0
    1.4289    3.3000    0.0000 N   0  0  0  0  0  0  0  0  0  0  0  0
    0.7145    3.7125    0.0000 C   0  0  0  0  0  0  0  0  0  0  0  0
    2.1434    3.7125    0.0000 C   0  0  0  0  0  0  0  0  0  0  0  0
  1  2  2  0  0  0  0
  2  3  1  0  0  0  0
  3  4  2  0  0  0  0
  4  5  1  0  0  0  0
  5  6  2  0  0  0  0
  1  6  1  0  0  0  0
  6  7  1  0  0  0  0
  7  8  1  0  0  0  0
  8  9  2  0  0  0  0
  9 10  1  0  0  0  0
  5 10  1  0  0  0  0
  9 11  1  0  0  0  0
 11 12  2  0  0  0  0
 12 13  1  0  0  0  0
 13 14  2  0  0  0  0
  8 14  1  0  0  0  0
  7 15  1  0  0  0  0
 15 16  1  0  0  0  0
 16 17  1  0  0  0  0
 16 18  1  0  0  0  0
 18 19  1  0  0  0  0
 18 20  1  0  0  0  0
M  END
>  <Name>
Promethazine

>  <CAS>
60-87-7

>  <Formula>
C17H20N2S

>  <MolWt>
284.42 

>  <Bioactivity>
A phenothiazine derivative with histamine H1-blocking, antimuscarinic, and sedative properties. It is used as an antiallergic, in pruritus, for motion sickness and sedation, and also in animals. 

>  <Pathways>
Neuroscience

>  <Target>
5-HT receptor antagonist;Histamine antagonist;Dopamine Receptor antagonist;AChR antagonist;Adrenergic Receptor ;Calmodulin inhibitor

>  <Receptor>
5-HT receptor ;Histamine H1 receptor;D(2) dopamine receptor;Muscarinic AChR;Adrenergic receptor;Calmodulin

>  <Reference>
1. Suzuki A, et al. Ther Drug Monit. 2003 Apr; 25(2):192-6.

$$$$
1775-95-7
  Mrv1561503291623562D          

 18 19  0  0  0  0            999 V2000
    2.8579   -1.6500    0.0000 C   0  0  0  0  0  0  0  0  0  0  0  0
    2.8579   -2.4750    0.0000 C   0  0  0  0  0  0  0  0  0  0  0  0
    3.5724   -2.8875    0.0000 C   0  0  0  0  0  0  0  0  0  0  0  0
    4.2868   -2.4750    0.0000 O   0  0  0  0  0  0  0  0  0  0  0  0
    3.5724   -3.7125    0.0000 C   0  0  0  0  0  0  0  0  0  0  0  0
    4.2868   -4.1250    0.0000 C   0  0  0  0  0  0  0  0  0  0  0  0
    4.2868   -4.9500    0.0000 C   0  0  0  0  0  0  0  0  0  0  0  0
    3.5724   -5.3625    0.0000 C   0  0  0  0  0  0  0  0  0  0  0  0
    2.8579   -4.9500    0.0000 C   0  0  0  0  0  0  0  0  0  0  0  0
    2.8579   -4.1250    0.0000 C   0  0  0  0  0  0  0  0  0  0  0  0
    2.1434   -2.8875    0.0000 C   0  0  0  0  0  0  0  0  0  0  0  0
    1.4289   -2.4750    0.0000 C   0  0  0  0  0  0  0  0  0  0  0  0
    1.4289   -1.6500    0.0000 C   0  0  0  0  0  0  0  0  0  0  0  0
    2.1434   -1.2375    0.0000 C   0  0  0  0  0  0  0  0  0  0  0  0
    2.1434   -0.4125    0.0000 N   0  3  0  0  0  0  0  0  0  0  0  0
    1.4289    0.0000    0.0000 O   0  5  0  0  0  0  0  0  0  0  0  0
    2.8579   -0.0000    0.0000 O   0  0  0  0  0  0  0  0  0  0  0  0
    2.1434   -3.7125    0.0000 N   0  0  0  0  0  0  0  0  0  0  0  0
  1  2  2  0  0  0  0
  2  3  1  0  0  0  0
  3  4  2  0  0  0  0
  3  5  1  0  0  0  0
  5  6  2  0  0  0  0
  6  7  1  0  0  0  0
  7  8  2  0  0  0  0
  8  9  1  0  0  0  0
  9 10  2  0  0  0  0
  5 10  1  0  0  0  0
  2 11  1  0  0  0  0
 11 12  2  0  0  0  0
 12 13  1  0  0  0  0
 13 14  2  0  0  0  0
  1 14  1  0  0  0  0
 14 15  1  0  0  0  0
 15 16  1  0  0  0  0
 15 17  2  0  0  0  0
 11 18  1  0  0  0  0
M  CHG  2  15   1  16  -1
M  END
>  <Name>
2-Amino-5-nitrobenzophenone

>  <CAS>
1775-95-7

>  <Formula>
C13H10N2O3

>  <MolWt>
242.23 

>  <Bioactivity>
An yellow crystal powder, used as industrial and organic intermediate.

>  <Pathways>
Others

>  <Target>
Intermediates

>  <Receptor>
Others

>  <Reference>
1. Balachandran V, et al. Spectrochim Acta A Mol Biomol Spectrosc. 2014 Jan 24;118:835-46.

$$$$
32449-92-6
  Mrv1561503291623562D          

 12 12  0  0  1  0            999 V2000
    0.5678    1.1143    0.0000 C   0  0  1  0  0  0  0  0  0  0  0  0
    1.2352    0.6294    0.0000 O   0  0  0  0  0  0  0  0  0  0  0  0
    0.9803   -0.1553    0.0000 C   0  0  0  0  0  0  0  0  0  0  0  0
    0.1553   -0.1553    0.0000 C   0  0  1  0  0  0  0  0  0  0  0  0
   -0.3297   -0.8227    0.0000 O   0  0  0  0  0  0  0  0  0  0  0  0
   -0.0997    0.6294    0.0000 C   0  0  1  0  0  0  0  0  0  0  0  0
   -0.8843    0.8843    0.0000 O   0  0  0  0  0  0  0  0  0  0  0  0
    1.4652   -0.8227    0.0000 O   0  0  0  0  0  0  0  0  0  0  0  0
    0.5678    1.9393    0.0000 C   0  0  2  0  0  0  0  0  0  0  0  0
    1.2822    2.3518    0.0000 C   0  0  0  0  0  0  0  0  0  0  0  0
    1.2822    3.1768    0.0000 O   0  0  0  0  0  0  0  0  0  0  0  0
   -0.1467    2.3518    0.0000 O   0  0  0  0  0  0  0  0  0  0  0  0
  1  2  1  0  0  0  0
  2  3  1  0  0  0  0
  3  4  1  0  0  0  0
  4  5  1  1  0  0  0
  4  6  1  0  0  0  0
  1  6  1  0  0  0  0
  6  7  1  1  0  0  0
  3  8  2  0  0  0  0
  1  9  1  1  0  0  0
  9 10  1  0  0  0  0
 10 11  2  0  0  0  0
  9 12  1  1  0  0  0
M  END
>  <Name>
Dicurone

>  <CAS>
32449-92-6

>  <Formula>
C6H8O6

>  <MolWt>
176.12 

>  <Bioactivity>
Glucuronolactone is a naturally occurring chemical that is an important structural component of nearly all connective tissues. Glucuronolactone is also found in many plant gums.

>  <Pathways>
Others

>  <Target>
Others

>  <Receptor>
Others

>  <Reference>
1. Suzuki S, et al. J Chromatogr Sci. 1998 Jul;36(7):357-60.

$$$$
25875-50-7
  Mrv1561503291623562D          

 23 23  0  0  0  0            999 V2000
    2.4032    2.7375    0.0000 C   0  0  0  0  0  0  0  0  0  0  0  0
    1.6887    2.3250    0.0000 C   0  0  0  0  0  0  0  0  0  0  0  0
    0.9743    2.7375    0.0000 C   0  0  0  0  0  0  0  0  0  0  0  0
    0.9743    3.5625    0.0000 C   0  0  0  0  0  0  0  0  0  0  0  0
    1.6887    3.9750    0.0000 C   0  0  0  0  0  0  0  0  0  0  0  0
    2.4032    3.5625    0.0000 C   0  0  0  0  0  0  0  0  0  0  0  0
    1.6887    4.8000    0.0000 Cl  0  0  0  0  0  0  0  0  0  0  0  0
    1.6887    1.5000    0.0000 C   0  0  0  0  0  0  0  0  0  0  0  0
    0.9743    1.0875    0.0000 N   0  3  0  0  0  0  0  0  0  0  0  0
    0.9743    0.2625    0.0000 N   0  0  0  0  0  0  0  0  0  0  0  0
    0.2598   -0.1500    0.0000 C   0  0  0  0  0  0  0  0  0  0  0  0
    0.2598   -0.9750    0.0000 N   0  0  0  0  0  0  0  0  0  0  0  0
   -0.4547   -1.3875    0.0000 N   0  0  0  0  0  0  0  0  0  0  0  0
   -0.4547   -2.2125    0.0000 C   0  0  0  0  0  0  0  0  0  0  0  0
   -1.1691   -2.6250    0.0000 C   0  0  0  0  0  0  0  0  0  0  0  0
   -1.1691   -3.4500    0.0000 C   0  0  0  0  0  0  0  0  0  0  0  0
   -1.8836   -3.8625    0.0000 C   0  0  0  0  0  0  0  0  0  0  0  0
   -2.5981   -3.4500    0.0000 C   0  0  0  0  0  0  0  0  0  0  0  0
   -3.3125   -3.8625    0.0000 Cl  0  0  0  0  0  0  0  0  0  0  0  0
   -2.5981   -2.6250    0.0000 C   0  0  0  0  0  0  0  0  0  0  0  0
   -1.8836   -2.2125    0.0000 C   0  0  0  0  0  0  0  0  0  0  0  0
   -0.4547    0.2625    0.0000 N   0  0  0  0  0  0  0  0  0  0  0  0
    4.7604    0.0000    0.0000 Cl  0  5  0  0  0  0  0  0  0  0  0  0
  1  2  2  0  0  0  0
  2  3  1  0  0  0  0
  3  4  2  0  0  0  0
  4  5  1  0  0  0  0
  5  6  2  0  0  0  0
  1  6  1  0  0  0  0
  5  7  1  0  0  0  0
  8  2  1  4  0  0  0
  8  9  2  0  0  0  0
  9 10  1  0  0  0  0
 10 11  1  0  0  0  0
 11 12  2  0  0  0  0
 12 13  1  0  0  0  0
 13 14  2  0  0  0  0
 14 15  1  0  0  0  0
 15 16  2  0  0  0  0
 16 17  1  0  0  0  0
 17 18  2  0  0  0  0
 18 19  1  0  0  0  0
 18 20  1  0  0  0  0
 20 21  2  0  0  0  0
 15 21  1  0  0  0  0
 11 22  1  0  0  0  0
M  CHG  2   9   1  23  -1
M  END
>  <Name>
Robenidine HCl

>  <CAS>
25875-50-7

>  <Formula>
C15H14Cl3N5

>  <MolWt>
370.66 

>  <Bioactivity>
Robenidine hydrochloride is an anticoccidial agent mainly for poultry.

>  <Pathways>
Others

>  <Target>
Others

>  <Receptor>
Others

>  <Reference>
1. Yeom H, et al. Arch Pharm Res. 2013 Mar;36(3):359-65.

$$$$
526-18-1
  Mrv1561503291623562D          

 17 18  0  0  0  0            999 V2000
    2.1434   -2.8875    0.0000 C   0  0  0  0  0  0  0  0  0  0  0  0
    2.1434   -3.7125    0.0000 C   0  0  0  0  0  0  0  0  0  0  0  0
    1.4289   -4.1250    0.0000 C   0  0  0  0  0  0  0  0  0  0  0  0
    0.7145   -3.7125    0.0000 C   0  0  0  0  0  0  0  0  0  0  0  0
    0.7145   -2.8875    0.0000 C   0  0  0  0  0  0  0  0  0  0  0  0
    1.4289   -2.4750    0.0000 C   0  0  0  0  0  0  0  0  0  0  0  0
    1.4289   -1.6500    0.0000 C   0  0  0  0  0  0  0  0  0  0  0  0
    0.7145   -1.2375    0.0000 N   0  0  0  0  0  0  0  0  0  0  0  0
    0.7145   -0.4125    0.0000 C   0  0  0  0  0  0  0  0  0  0  0  0
    0.0000    0.0000    0.0000 C   0  0  0  0  0  0  0  0  0  0  0  0
    0.0000    0.8250    0.0000 C   0  0  0  0  0  0  0  0  0  0  0  0
    0.7145    1.2375    0.0000 C   0  0  0  0  0  0  0  0  0  0  0  0
    1.4289    0.8250    0.0000 C   0  0  0  0  0  0  0  0  0  0  0  0
    1.4289   -0.0000    0.0000 C   0  0  0  0  0  0  0  0  0  0  0  0
    0.7145    2.0625    0.0000 O   0  0  0  0  0  0  0  0  0  0  0  0
    2.1434   -1.2375    0.0000 O   0  0  0  0  0  0  0  0  0  0  0  0
   -0.0000   -2.4750    0.0000 O   0  0  0  0  0  0  0  0  0  0  0  0
  1  2  2  0  0  0  0
  2  3  1  0  0  0  0
  3  4  2  0  0  0  0
  4  5  1  0  0  0  0
  5  6  2  0  0  0  0
  1  6  1  0  0  0  0
  6  7  1  0  0  0  0
  7  8  1  0  0  0  0
  8  9  1  0  0  0  0
  9 10  2  0  0  0  0
 10 11  1  0  0  0  0
 11 12  2  0  0  0  0
 12 13  1  0  0  0  0
 13 14  2  0  0  0  0
  9 14  1  0  0  0  0
 12 15  1  0  0  0  0
  7 16  2  0  0  0  0
  5 17  1  0  0  0  0
M  END
>  <Name>
Osalmid

>  <CAS>
526-18-1

>  <Formula>
C13H11NO3

>  <MolWt>
229.23 

>  <Bioactivity>
N/A

>  <Pathways>
Metabolism

>  <Target>
Biliation activator

>  <Receptor>
biliation

>  <Reference>
1. Sadanaga T, et al. J Chromatogr. 1981 Apr 10;223(1):243-6.

$$$$
2430-27-5
  Mrv1561503291623562D          

 10  9  0  0  0  0            999 V2000
    4.6184    1.8414    0.0000 C   0  0  0  0  0  0  0  0  0  0  0  0
    3.9039    1.4289    0.0000 C   0  0  0  0  0  0  0  0  0  0  0  0
    3.1895    1.8414    0.0000 C   0  0  0  0  0  0  0  0  0  0  0  0
    2.4750    1.4289    0.0000 C   0  0  0  0  0  0  0  0  0  0  0  0
    1.7605    1.8414    0.0000 C   0  0  0  0  0  0  0  0  0  0  0  0
    3.9039    0.6039    0.0000 C   0  0  0  0  0  0  0  0  0  0  0  0
    3.1895    0.1914    0.0000 N   0  0  0  0  0  0  0  0  0  0  0  0
    4.6184    0.1914    0.0000 O   0  0  0  0  0  0  0  0  0  0  0  0
    5.3329    1.4289    0.0000 C   0  0  0  0  0  0  0  0  0  0  0  0
    6.0474    1.8414    0.0000 C   0  0  0  0  0  0  0  0  0  0  0  0
  1  2  1  0  0  0  0
  2  3  1  0  0  0  0
  3  4  1  0  0  0  0
  4  5  1  0  0  0  0
  2  6  1  0  0  0  0
  6  7  1  0  0  0  0
  6  8  2  0  0  0  0
  1  9  1  0  0  0  0
  9 10  1  0  0  0  0
M  END
>  <Name>
Valpramide

>  <CAS>
2430-27-5

>  <Formula>
C8H17NO

>  <MolWt>
143.23 

>  <Bioactivity>
Valpromide is a carboxamide derivative of valproic acid used in the treatment of epilepsy and some affective disorders. 

>  <Pathways>
Others

>  <Target>
Others

>  <Receptor>
Limonene-1,2-epoxide hydrolase

>  <Reference>
1. Lemoine P, et al. Eur Psychiatry. 2000 Nov;15(7):424-32.

$$$$
1318-93-0
  Mrv1561503291623562D          

 18  8  0  0  0  0            999 V2000
    0.0000    0.0000    0.0000 O   0  0  0  0  0  0  0  0  0  0  0  0
    3.3000    0.0000    0.0000 O   0  6  0  0  0  0  0  0  0  0  0  0
    6.6000    0.0000    0.0000 O   0  6  0  0  0  0  0  0  0  0  0  0
    0.0000   -1.6500    0.0000 O   0  6  0  0  0  0  0  0  0  0  0  0
    1.7679   -1.6500    0.0000 O   0  0  0  0  0  0  0  0  0  0  0  0
    2.5929   -1.6500    0.0000 Si  0  0  0  0  0  0  0  0  0  0  0  0
    3.4179   -1.6500    0.0000 O   0  0  0  0  0  0  0  0  0  0  0  0
    5.1857   -1.6500    0.0000 O   0  0  0  0  0  0  0  0  0  0  0  0
    6.0107   -1.6500    0.0000 Si  0  0  0  0  0  0  0  0  0  0  0  0
    6.8357   -1.6500    0.0000 O   0  0  0  0  0  0  0  0  0  0  0  0
   -0.8250   -3.3000    0.0000 O   0  0  0  0  0  0  0  0  0  0  0  0
    0.0000   -3.3000    0.0000 Si  0  0  0  0  0  0  0  0  0  0  0  0
    0.8250   -3.3000    0.0000 O   0  0  0  0  0  0  0  0  0  0  0  0
    2.5929   -3.3000    0.0000 O   0  0  0  0  0  0  0  0  0  0  0  0
    3.4179   -3.3000    0.0000 Si  0  0  0  0  0  0  0  0  0  0  0  0
    4.2429   -3.3000    0.0000 O   0  0  0  0  0  0  0  0  0  0  0  0
    2.4750    0.0000    0.0000 Al  0  1  0  0  0  0  0  0  0  0  0  0
    5.7750    0.0000    0.0000 Al  0  1  0  0  0  0  0  0  0  0  0  0
  5  6  2  0  0  0  0
  6  7  2  0  0  0  0
  8  9  2  0  0  0  0
  9 10  2  0  0  0  0
 11 12  2  0  0  0  0
 12 13  2  0  0  0  0
 14 15  2  0  0  0  0
 15 16  2  0  0  0  0
M  CHG  5   2  -2   3  -2   4  -2  17   3  18   3
M  END
>  <Name>
Sodium montmorillonite

>  <CAS>
1318-93-0

>  <Formula>
Al2O9Si3

>  <MolWt>
282.21 

>  <Bioactivity>
The montmorillonite-catalyzed reactions of the 5'-phosphorimidazolide of adenosine used as a model generated RNA type oligomers. 

>  <Pathways>
Others

>  <Target>
Others

>  <Receptor>
Others

>  <Reference>
1. Joshi PC, Aldersley MF. J Mol Evol. 2013 Jun;76(6):371-9

$$$$
434-13-9
  Mrv1561503291623562D          

 27 30  0  0  1  0            999 V2000
    2.3387    0.1221    0.0000 C   0  0  2  0  0  0  0  0  0  0  0  0
    2.8705    0.7528    0.0000 C   0  0  2  0  0  0  0  0  0  0  0  0
    3.6826    0.6076    0.0000 C   0  0  1  0  0  0  0  0  0  0  0  0
    3.9629   -0.1684    0.0000 C   0  0  2  0  0  0  0  0  0  0  0  0
    4.7875   -0.1416    0.0000 C   0  0  1  0  0  0  0  0  0  0  0  0
    5.2939   -0.7929    0.0000 C   0  0  1  0  0  0  0  0  0  0  0  0
    6.1111   -0.6800    0.0000 C   0  0  0  0  0  0  0  0  0  0  0  0
    6.6175   -1.3314    0.0000 C   0  0  0  0  0  0  0  0  0  0  0  0
    7.4347   -1.2185    0.0000 C   0  0  0  0  0  0  0  0  0  0  0  0
    7.9411   -1.8698    0.0000 O   0  0  0  0  0  0  0  0  0  0  0  0
    7.7456   -0.4543    0.0000 O   0  0  0  0  0  0  0  0  0  0  0  0
    4.9830   -1.5571    0.0000 C   0  0  0  0  0  0  0  0  0  0  0  0
    5.0168    0.6509    0.0000 C   0  0  0  0  0  0  0  0  0  0  0  0
    4.3340    1.1139    0.0000 C   0  0  0  0  0  0  0  0  0  0  0  0
    4.3228   -0.9107    0.0000 C   0  0  0  0  0  0  0  0  0  0  0  0
    3.4311   -0.7991    0.0000 C   0  0  0  0  0  0  0  0  0  0  0  0
    2.6190   -0.6539    0.0000 C   0  0  0  0  0  0  0  0  0  0  0  0
    2.5902    1.5287    0.0000 C   0  0  0  0  0  0  0  0  0  0  0  0
    1.7781    1.6739    0.0000 C   0  0  0  0  0  0  0  0  0  0  0  0
    1.2463    1.0432    0.0000 C   0  0  1  0  0  0  0  0  0  0  0  0
    1.5266    0.2673    0.0000 C   0  0  1  0  0  0  0  0  0  0  0  0
    1.8069   -0.5086    0.0000 C   0  0  0  0  0  0  0  0  0  0  0  0
    0.9948   -0.3634    0.0000 C   0  0  0  0  0  0  0  0  0  0  0  0
    0.1827   -0.2182    0.0000 C   0  0  0  0  0  0  0  0  0  0  0  0
   -0.0976    0.5577    0.0000 C   0  0  2  0  0  0  0  0  0  0  0  0
    0.4342    1.1884    0.0000 C   0  0  0  0  0  0  0  0  0  0  0  0
   -0.9098    0.7029    0.0000 O   0  0  0  0  0  0  0  0  0  0  0  0
  1  2  1  0  0  0  0
  2  3  1  0  0  0  0
  3  4  1  0  0  0  0
  4  5  1  0  0  0  0
  5  6  1  6  0  0  0
  6  7  1  0  0  0  0
  7  8  1  0  0  0  0
  8  9  1  0  0  0  0
  9 10  1  0  0  0  0
  9 11  2  0  0  0  0
  6 12  1  1  0  0  0
  5 13  1  0  0  0  0
 13 14  1  0  0  0  0
  3 14  1  6  0  0  0
  4 15  1  6  0  0  0
  4 16  1  0  0  0  0
 16 17  1  0  0  0  0
  1 17  1  6  0  0  0
  2 18  1  1  0  0  0
 18 19  1  0  0  0  0
 19 20  1  0  0  0  0
 20 21  1  0  0  0  0
  1 21  1  0  0  0  0
 21 22  1  6  0  0  0
 21 23  1  0  0  0  0
 23 24  1  0  0  0  0
 24 25  1  0  0  0  0
 25 26  1  0  0  0  0
 20 26  1  1  0  0  0
 25 27  1  1  0  0  0
M  END
>  <Name>
Lithocholic acid

>  <CAS>
434-13-9

>  <Formula>
C24H40O3

>  <MolWt>
376.58 

>  <Bioactivity>
A bile acid formed from chenodeoxycholate by bacterial action, usually conjugated with glycine or taurine. It acts as a detergent to solubilize fats for absorption and is itself absorbed. It is used as cholagogue and choleretic. 

>  <Pathways>
Metabolism; Vitamin

>  <Target>
Farnesoid X receptor;VD

>  <Receptor>
FXR,PXR;VD receptor

>  <Reference>
1. Kozoni V, et al. Carcinogenesis. 2000 May;21(5):999-1005.

$$$$
3505-38-2
  Mrv1561503291623562D          

 28 28  0  0  0  0            999 V2000
   -0.8216    1.3819    0.0000 C   0  0  0  0  0  0  0  0  0  0  0  0
   -0.8216    0.5569    0.0000 C   0  0  0  0  0  0  0  0  0  0  0  0
   -0.1072    0.1444    0.0000 C   0  0  0  0  0  0  0  0  0  0  0  0
    0.6073    0.5569    0.0000 O   0  0  0  0  0  0  0  0  0  0  0  0
    1.3218    0.1444    0.0000 C   0  0  0  0  0  0  0  0  0  0  0  0
    2.0362    0.5569    0.0000 C   0  0  0  0  0  0  0  0  0  0  0  0
    2.7507    0.1444    0.0000 N   0  0  0  0  0  0  0  0  0  0  0  0
    3.4652    0.5569    0.0000 C   0  0  0  0  0  0  0  0  0  0  0  0
    2.7507   -0.6806    0.0000 C   0  0  0  0  0  0  0  0  0  0  0  0
   -0.1072   -0.6806    0.0000 C   0  0  0  0  0  0  0  0  0  0  0  0
    0.6073   -1.0931    0.0000 C   0  0  0  0  0  0  0  0  0  0  0  0
    0.6073   -1.9181    0.0000 C   0  0  0  0  0  0  0  0  0  0  0  0
   -0.1072   -2.3306    0.0000 C   0  0  0  0  0  0  0  0  0  0  0  0
   -0.8216   -1.9181    0.0000 C   0  0  0  0  0  0  0  0  0  0  0  0
   -0.8216   -1.0931    0.0000 N   0  0  0  0  0  0  0  0  0  0  0  0
   -1.5361    0.1444    0.0000 C   0  0  0  0  0  0  0  0  0  0  0  0
   -2.2506    0.5569    0.0000 C   0  0  0  0  0  0  0  0  0  0  0  0
   -2.2506    1.3819    0.0000 C   0  0  0  0  0  0  0  0  0  0  0  0
   -1.5361    1.7944    0.0000 C   0  0  0  0  0  0  0  0  0  0  0  0
   -2.9651    1.7944    0.0000 Cl  0  0  0  0  0  0  0  0  0  0  0  0
    8.6509   -0.0000    0.0000 O   0  0  0  0  0  0  0  0  0  0  0  0
    7.8259    0.0000    0.0000 C   0  0  0  0  0  0  0  0  0  0  0  0
    7.4134   -0.7145    0.0000 O   0  0  0  0  0  0  0  0  0  0  0  0
    7.4134    0.7145    0.0000 C   0  0  0  0  0  0  0  0  0  0  0  0
    6.5884    0.7145    0.0000 C   0  0  0  0  0  0  0  0  0  0  0  0
    6.1759    0.0000    0.0000 C   0  0  0  0  0  0  0  0  0  0  0  0
    6.5884   -0.7145    0.0000 O   0  0  0  0  0  0  0  0  0  0  0  0
    5.3509    0.0000    0.0000 O   0  0  0  0  0  0  0  0  0  0  0  0
  1  2  2  0  0  0  0
  2  3  1  0  0  0  0
  3  4  1  0  0  0  0
  4  5  1  0  0  0  0
  5  6  1  0  0  0  0
  6  7  1  0  0  0  0
  7  8  1  0  0  0  0
  7  9  1  0  0  0  0
  3 10  1  0  0  0  0
 10 11  2  0  0  0  0
 11 12  1  0  0  0  0
 12 13  2  0  0  0  0
 13 14  1  0  0  0  0
 14 15  2  0  0  0  0
 10 15  1  0  0  0  0
  2 16  1  0  0  0  0
 16 17  2  0  0  0  0
 17 18  1  0  0  0  0
 18 19  2  0  0  0  0
  1 19  1  0  0  0  0
 18 20  1  0  0  0  0
 21 22  2  0  0  0  0
 22 23  1  0  0  0  0
 22 24  1  0  0  0  0
 24 25  2  0  0  0  0
 25 26  1  0  0  0  0
 26 27  2  0  0  0  0
 26 28  1  0  0  0  0
M  END
>  <Name>
Carbinoxamine Maleate Salt

>  <CAS>
3505-38-2

>  <Formula>
C20H23ClN2O5

>  <MolWt>
406.86 

>  <Bioactivity>
Carbinoxamine maleate is used as Histamine H1 Antagonists.

>  <Pathways>
Neuroscience

>  <Target>
Histamine Receptor antagonist

>  <Receptor>
Histamine H1 receptor

>  <Reference>
1. Oishi R, et al. Naunyn Schmiedebergs Arch Pharmacol. 1994 Feb;349(2):140-4.

$$$$
517-28-2
  Mrv1561503291623562D          

 22 25  0  0  1  0            999 V2000
    2.3854   -0.9919    0.0000 C   0  0  1  0  0  0  0  0  0  0  0  0
    3.2004   -1.1201    0.0000 C   0  0  0  0  0  0  0  0  0  0  0  0
    3.5742   -0.3846    0.0000 C   0  0  0  0  0  0  0  0  0  0  0  0
    2.9902    0.1981    0.0000 C   0  0  0  0  0  0  0  0  0  0  0  0
    3.2029    0.9952    0.0000 C   0  0  0  0  0  0  0  0  0  0  0  0
    3.9995    1.2096    0.0000 C   0  0  0  0  0  0  0  0  0  0  0  0
    4.5835    0.6269    0.0000 C   0  0  0  0  0  0  0  0  0  0  0  0
    4.3708   -0.1702    0.0000 C   0  0  0  0  0  0  0  0  0  0  0  0
    5.3802    0.8412    0.0000 O   0  0  0  0  0  0  0  0  0  0  0  0
    4.2122    2.0067    0.0000 O   0  0  0  0  0  0  0  0  0  0  0  0
    2.2555   -0.1772    0.0000 C   0  0  1  0  0  0  0  0  0  0  0  0
    1.4850    0.1177    0.0000 C   0  0  0  0  0  0  0  0  0  0  0  0
    0.8444   -0.4022    0.0000 C   0  0  0  0  0  0  0  0  0  0  0  0
    0.9743   -1.2169    0.0000 O   0  0  0  0  0  0  0  0  0  0  0  0
    1.7448   -1.5118    0.0000 C   0  0  0  0  0  0  0  0  0  0  0  0
    0.0739   -0.1074    0.0000 C   0  0  0  0  0  0  0  0  0  0  0  0
   -0.0560    0.7073    0.0000 C   0  0  0  0  0  0  0  0  0  0  0  0
    0.5846    1.2272    0.0000 C   0  0  0  0  0  0  0  0  0  0  0  0
    1.3551    0.9324    0.0000 C   0  0  0  0  0  0  0  0  0  0  0  0
   -0.8266    1.0022    0.0000 O   0  0  0  0  0  0  0  0  0  0  0  0
   -0.5667   -0.6272    0.0000 O   0  0  0  0  0  0  0  0  0  0  0  0
    2.5998   -1.7886    0.0000 O   0  0  0  0  0  0  0  0  0  0  0  0
  1  2  1  0  0  0  0
  2  3  1  0  0  0  0
  3  4  2  0  0  0  0
  4  5  1  0  0  0  0
  5  6  2  0  0  0  0
  6  7  1  0  0  0  0
  7  8  2  0  0  0  0
  3  8  1  0  0  0  0
  7  9  1  0  0  0  0
  6 10  1  0  0  0  0
 11  4  1  6  0  0  0
  1 11  1  0  0  0  0
 11 12  1  0  0  0  0
 12 13  2  0  0  0  0
 13 14  1  0  0  0  0
 14 15  1  0  0  0  0
  1 15  1  0  0  0  0
 13 16  1  0  0  0  0
 16 17  2  0  0  0  0
 17 18  1  0  0  0  0
 18 19  2  0  0  0  0
 12 19  1  0  0  0  0
 17 20  1  0  0  0  0
 16 21  1  0  0  0  0
  1 22  1  1  0  0  0
M  END
>  <Name>
Hematoxylin

>  <CAS>
517-28-2

>  <Formula>
C16H14O6

>  <MolWt>
302.28 

>  <Bioactivity>
1NM-PP1(PP1 Analog II) is a cell-permeable PP1 analog that acts as a potent and selective inhibitor of mutant kinases over their wild-type progenitors(IC50=28 uM vSrc; 4.2 nM v-Src-as1 I338G).

>  <Pathways>
Others

>  <Target>
Others

>  <Receptor>
Others

>  <Reference>
1. Papa FR, et al.  Science. 2003 Nov 28;302(5650):1533-7.

$$$$
603-48-5
  Mrv1561503291623562D          

 28 30  0  0  0  0            999 V2000
   -0.0000   -2.4750    0.0000 C   0  0  0  0  0  0  0  0  0  0  0  0
   -0.7145   -2.8875    0.0000 C   0  0  0  0  0  0  0  0  0  0  0  0
   -0.7145   -3.7125    0.0000 C   0  0  0  0  0  0  0  0  0  0  0  0
   -1.4289   -4.1250    0.0000 C   0  0  0  0  0  0  0  0  0  0  0  0
   -1.4289   -4.9500    0.0000 C   0  0  0  0  0  0  0  0  0  0  0  0
   -2.1434   -5.3625    0.0000 C   0  0  0  0  0  0  0  0  0  0  0  0
   -2.8579   -4.9500    0.0000 C   0  0  0  0  0  0  0  0  0  0  0  0
   -2.8579   -4.1250    0.0000 C   0  0  0  0  0  0  0  0  0  0  0  0
   -2.1434   -3.7125    0.0000 C   0  0  0  0  0  0  0  0  0  0  0  0
   -3.5724   -5.3625    0.0000 N   0  0  0  0  0  0  0  0  0  0  0  0
   -4.2868   -4.9500    0.0000 C   0  0  0  0  0  0  0  0  0  0  0  0
   -3.5724   -6.1875    0.0000 C   0  0  0  0  0  0  0  0  0  0  0  0
    0.0000   -4.1250    0.0000 C   0  0  0  0  0  0  0  0  0  0  0  0
    0.7145   -3.7125    0.0000 C   0  0  0  0  0  0  0  0  0  0  0  0
    1.4289   -4.1250    0.0000 C   0  0  0  0  0  0  0  0  0  0  0  0
    1.4289   -4.9500    0.0000 C   0  0  0  0  0  0  0  0  0  0  0  0
    2.1434   -5.3625    0.0000 N   0  0  0  0  0  0  0  0  0  0  0  0
    2.8579   -4.9500    0.0000 C   0  0  0  0  0  0  0  0  0  0  0  0
    2.1434   -6.1875    0.0000 C   0  0  0  0  0  0  0  0  0  0  0  0
    0.7145   -5.3625    0.0000 C   0  0  0  0  0  0  0  0  0  0  0  0
   -0.0000   -4.9500    0.0000 C   0  0  0  0  0  0  0  0  0  0  0  0
   -1.4289   -2.4750    0.0000 C   0  0  0  0  0  0  0  0  0  0  0  0
   -1.4289   -1.6500    0.0000 C   0  0  0  0  0  0  0  0  0  0  0  0
   -0.7145   -1.2375    0.0000 C   0  0  0  0  0  0  0  0  0  0  0  0
   -0.0000   -1.6500    0.0000 C   0  0  0  0  0  0  0  0  0  0  0  0
   -0.7145   -0.4125    0.0000 N   0  0  0  0  0  0  0  0  0  0  0  0
   -0.0000   -0.0000    0.0000 C   0  0  0  0  0  0  0  0  0  0  0  0
   -1.4289    0.0000    0.0000 C   0  0  0  0  0  0  0  0  0  0  0  0
  1  2  2  0  0  0  0
  2  3  1  0  0  0  0
  3  4  1  0  0  0  0
  4  5  2  0  0  0  0
  5  6  1  0  0  0  0
  6  7  2  0  0  0  0
  7  8  1  0  0  0  0
  8  9  2  0  0  0  0
  4  9  1  0  0  0  0
  7 10  1  0  0  0  0
 10 11  1  0  0  0  0
 10 12  1  0  0  0  0
  3 13  1  0  0  0  0
 13 14  2  0  0  0  0
 14 15  1  0  0  0  0
 15 16  2  0  0  0  0
 16 17  1  0  0  0  0
 17 18  1  0  0  0  0
 17 19  1  0  0  0  0
 16 20  1  0  0  0  0
 20 21  2  0  0  0  0
 13 21  1  0  0  0  0
  2 22  1  0  0  0  0
 22 23  2  0  0  0  0
 23 24  1  0  0  0  0
 24 25  2  0  0  0  0
  1 25  1  0  0  0  0
 24 26  1  0  0  0  0
 26 27  1  0  0  0  0
 26 28  1  0  0  0  0
M  END
>  <Name>
Leucocrystal Violet

>  <CAS>
603-48-5

>  <Formula>
C25H31N3

>  <MolWt>
373.53 

>  <Bioactivity>
Leuco Gentian Violet is a small molecular with fomula C25H31N3.

>  <Pathways>
Others

>  <Target>
Others

>  <Receptor>
Others

>  <Reference>
1. Ju S, et al. Food Chem. 2015 Oct 15;185:479-87. 

$$$$
T2221
  Mrv1561503291623562D          

 17 18  0  0  0  0            999 V2000
    0.7145   -0.4125    0.0000 C   0  0  0  0  0  0  0  0  0  0  0  0
    0.7145   -1.2375    0.0000 C   0  0  0  0  0  0  0  0  0  0  0  0
    1.3819   -1.7224    0.0000 O   0  0  0  0  0  0  0  0  0  0  0  0
    1.1270   -2.5070    0.0000 C   0  0  0  0  0  0  0  0  0  0  0  0
    1.6119   -3.1745    0.0000 N   0  0  0  0  0  0  0  0  0  0  0  0
    2.4324   -3.0882    0.0000 C   0  0  0  0  0  0  0  0  0  0  0  0
    2.9173   -3.7557    0.0000 N   0  0  0  0  0  0  0  0  0  0  0  0
    2.5817   -4.5094    0.0000 C   0  0  0  0  0  0  0  0  0  0  0  0
    3.0667   -5.1768    0.0000 O   0  0  0  0  0  0  0  0  0  0  0  0
    1.7613   -4.5956    0.0000 C   0  0  0  0  0  0  0  0  0  0  0  0
    1.2763   -3.9282    0.0000 C   0  0  0  0  0  0  0  0  0  0  0  0
    2.7679   -2.3346    0.0000 O   0  0  0  0  0  0  0  0  0  0  0  0
    0.3020   -2.5070    0.0000 C   0  0  0  0  0  0  0  0  0  0  0  0
    0.0470   -1.7224    0.0000 C   0  0  0  0  0  0  0  0  0  0  0  0
   -0.7376   -1.4675    0.0000 O   0  0  0  0  0  0  0  0  0  0  0  0
   -0.1830   -3.1745    0.0000 O   0  0  0  0  0  0  0  0  0  0  0  0
   -0.0000    0.0000    0.0000 O   0  0  0  0  0  0  0  0  0  0  0  0
  1  2  1  0  0  0  0
  2  3  1  0  0  0  0
  3  4  1  0  0  0  0
  4  5  1  0  0  0  0
  5  6  1  0  0  0  0
  6  7  1  0  0  0  0
  7  8  1  0  0  0  0
  8  9  2  0  0  0  0
  8 10  1  0  0  0  0
 10 11  2  0  0  0  0
  5 11  1  0  0  0  0
  6 12  2  0  0  0  0
  4 13  1  0  0  0  0
 13 14  1  0  0  0  0
  2 14  1  0  0  0  0
 14 15  1  0  0  0  0
 13 16  1  0  0  0  0
  1 17  1  0  0  0  0
M  END
>  <Name>
Uridine

>  <CAS>
58-96-8

>  <Formula>
C9H12N2O6

>  <MolWt>
244.20 

>  <Bioactivity>
Uridine, Trisodium Salt is an energy-rich precursor in the enzymatic biosynthesis of RNA, a potent vasodilator, and induces contractile responses in some tissues.

>  <Pathways>
DNA Damage/DNA Repair

>  <Target>
DNA Synthesis

>  <Receptor>
LSm6

>  <Reference>
1. Imming P, et al. Nat Rev Drug Discov. 2006, 5(10):821-34.

$$$$
101-31-5
  Mrv1561503291623562D          

 21 23  0  0  1  0            999 V2000
   -2.1394    1.3443    0.0000 C   0  0  0  0  0  0  0  0  0  0  0  0
   -2.0778    2.1670    0.0000 C   0  0  0  0  0  0  0  0  0  0  0  0
   -2.6825    2.7281    0.0000 C   0  0  2  0  0  0  0  0  0  0  0  0
   -3.3466    2.0413    0.0000 N   0  0  0  0  0  0  0  0  0  0  0  0
   -4.0611    2.4538    0.0000 C   0  0  0  0  0  0  0  0  0  0  0  0
   -3.6094    1.1227    0.0000 C   0  0  2  0  0  0  0  0  0  0  0  0
   -2.8211    0.8795    0.0000 C   0  0  0  0  0  0  0  0  0  0  0  0
   -3.9108    1.8907    0.0000 C   0  0  0  0  0  0  0  0  0  0  0  0
   -3.4983    2.6052    0.0000 C   0  0  0  0  0  0  0  0  0  0  0  0
   -1.4249    0.9318    0.0000 O   0  0  0  0  0  0  0  0  0  0  0  0
   -1.4249    0.1068    0.0000 C   0  0  0  0  0  0  0  0  0  0  0  0
   -0.7105   -0.3057    0.0000 C   0  0  1  0  0  0  0  0  0  0  0  0
   -0.7105   -1.1307    0.0000 C   0  0  0  0  0  0  0  0  0  0  0  0
    0.0040   -1.5432    0.0000 C   0  0  0  0  0  0  0  0  0  0  0  0
    0.0040   -2.3682    0.0000 C   0  0  0  0  0  0  0  0  0  0  0  0
   -0.7105   -2.7807    0.0000 C   0  0  0  0  0  0  0  0  0  0  0  0
   -1.4249   -2.3682    0.0000 C   0  0  0  0  0  0  0  0  0  0  0  0
   -1.4249   -1.5432    0.0000 C   0  0  0  0  0  0  0  0  0  0  0  0
    0.0040    0.1068    0.0000 C   0  0  0  0  0  0  0  0  0  0  0  0
    0.7185   -0.3057    0.0000 O   0  0  0  0  0  0  0  0  0  0  0  0
   -2.1394   -0.3057    0.0000 O   0  0  0  0  0  0  0  0  0  0  0  0
  1  2  1  0  0  0  0
  2  3  1  0  0  0  0
  3  4  1  1  0  0  0
  4  5  1  0  0  0  0
  6  4  1  1  0  0  0
  6  7  1  0  0  0  0
  1  7  1  0  0  0  0
  6  8  1  0  0  0  0
  8  9  1  0  0  0  0
  3  9  1  0  0  0  0
  1 10  1  0  0  0  0
 10 11  1  0  0  0  0
 11 12  1  0  0  0  0
 12 13  1  0  0  0  0
 13 14  2  0  0  0  0
 14 15  1  0  0  0  0
 15 16  2  0  0  0  0
 16 17  1  0  0  0  0
 17 18  2  0  0  0  0
 13 18  1  0  0  0  0
 12 19  1  6  0  0  0
 19 20  1  0  0  0  0
 11 21  2  0  0  0  0
M  END
>  <Name>
L-Hyoscyamine

>  <CAS>
101-31-5

>  <Formula>
C17H23NO3

>  <MolWt>
289.38 

>  <Bioactivity>
Hyoscyamine is an AChR inhibitor with IC50 of 7.5 nM.

>  <Pathways>
Neuroscience

>  <Target>
AChR antagonist

>  <Receptor>
AChR

>  <Reference>
1. Schmeller T, et al. Pharmazie, 1995, 50(7), 493-495.

$$$$
T0912L
  Mrv1561503291623562D          

 32 35  0  0  1  0            999 V2000
    1.4289    0.8250    0.0000 C   0  0  2  0  0  0  0  0  0  0  0  0
    2.1434    1.2375    0.0000 C   0  0  0  0  0  0  0  0  0  0  0  0
    2.8579    0.8250    0.0000 C   0  0  2  0  0  0  0  0  0  0  0  0
    3.5724    1.2375    0.0000 C   0  0  2  0  0  0  0  0  0  0  0  0
    3.0421    1.8695    0.0000 O   0  0  0  0  0  0  0  0  0  0  0  0
    4.2868    0.8250    0.0000 C   0  0  0  0  0  0  0  0  0  0  0  0
    4.2868   -0.0000    0.0000 C   0  0  0  0  0  0  0  0  0  0  0  0
    3.5724   -0.4125    0.0000 C   0  0  0  0  0  0  0  0  0  0  0  0
    2.8579   -0.0000    0.0000 C   0  0  0  0  0  0  0  0  0  0  0  0
    2.1434   -0.4125    0.0000 C   0  0  0  0  0  0  0  0  0  0  0  0
    2.1434   -1.2375    0.0000 O   0  0  0  0  0  0  0  0  0  0  0  0
    1.4289   -0.0000    0.0000 C   0  0  1  0  0  0  0  0  0  0  0  0
    1.4289   -0.8250    0.0000 O   0  0  0  0  0  0  0  0  0  0  0  0
    0.7145   -0.4125    0.0000 C   0  0  0  0  0  0  0  0  0  0  0  0
    0.7145   -1.2375    0.0000 O   0  0  0  0  0  0  0  0  0  0  0  0
   -0.0000    0.0000    0.0000 C   0  0  0  0  0  0  0  0  0  0  0  0
    0.0000    0.8250    0.0000 C   0  0  0  0  0  0  0  0  0  0  0  0
   -0.7145    1.2375    0.0000 O   0  0  0  0  0  0  0  0  0  0  0  0
    0.7145    1.2375    0.0000 C   0  0  1  0  0  0  0  0  0  0  0  0
    0.7145    2.0625    0.0000 N   0  0  0  0  0  0  0  0  0  0  0  0
    1.4289    2.4750    0.0000 C   0  0  0  0  0  0  0  0  0  0  0  0
    0.0000    2.4750    0.0000 C   0  0  0  0  0  0  0  0  0  0  0  0
   -0.7145   -0.4125    0.0000 C   0  0  0  0  0  0  0  0  0  0  0  0
   -0.7145   -1.2375    0.0000 O   0  0  0  0  0  0  0  0  0  0  0  0
   -1.4289    0.0000    0.0000 N   0  0  0  0  0  0  0  0  0  0  0  0
    3.5724   -1.2375    0.0000 O   0  0  0  0  0  0  0  0  0  0  0  0
    5.0013   -0.4125    0.0000 C   0  0  0  0  0  0  0  0  0  0  0  0
    5.7158    0.0000    0.0000 C   0  0  0  0  0  0  0  0  0  0  0  0
    5.7158    0.8250    0.0000 C   0  0  0  0  0  0  0  0  0  0  0  0
    5.0013    1.2375    0.0000 C   0  0  0  0  0  0  0  0  0  0  0  0
    5.0013   -1.2375    0.0000 O   0  0  0  0  0  0  0  0  0  0  0  0
    4.1027    1.8695    0.0000 C   0  0  0  0  0  0  0  0  0  0  0  0
  1  2  1  6  0  0  0
  2  3  1  0  0  0  0
  3  4  1  0  0  0  0
  4  5  1  6  0  0  0
  4  6  1  0  0  0  0
  6  7  2  0  0  0  0
  7  8  1  0  0  0  0
  8  9  2  0  0  0  0
  3  9  1  6  0  0  0
  9 10  1  0  0  0  0
 10 11  2  0  0  0  0
 10 12  1  0  0  0  0
  1 12  1  0  0  0  0
 12 13  1  1  0  0  0
 12 14  1  0  0  0  0
 14 15  2  0  0  0  0
 14 16  1  0  0  0  0
 16 17  1  0  0  0  0
 17 18  2  0  0  0  0
 17 19  1  0  0  0  0
  1 19  1  0  0  0  0
 19 20  1  1  0  0  0
 20 21  1  0  0  0  0
 20 22  1  0  0  0  0
 16 23  2  0  0  0  0
 23 24  1  0  0  0  0
 23 25  1  0  0  0  0
  8 26  1  0  0  0  0
  7 27  1  0  0  0  0
 27 28  2  0  0  0  0
 28 29  1  0  0  0  0
 29 30  2  0  0  0  0
  6 30  1  0  0  0  0
 27 31  1  0  0  0  0
  4 32  1  1  0  0  0
M  END
>  <Name>
Tetracycline

>  <CAS>
60-54-8

>  <Formula>
C22H24N2O8.XH2O

>  <MolWt>
444.43 

>  <Bioactivity>
Tetracycline is a naphthacene antibiotic that inhibits AMINO ACYL TRNA binding during protein synthesis.


>  <Pathways>
Microbiology & Virology

>  <Target>
Antibiotic

>  <Receptor>
30S ribosomal protein, 16S ribosomal protein;Major prion protein

>  <Reference>
1. Buck MA, Cooperman BS. Biochemistry. 1990 Jun 5;29(22):5374-9. 

$$$$
T2565
  Mrv1561503291623562D          

 22 24  0  0  1  0            999 V2000
    0.7145   -0.4125    0.0000 C   0  0  1  0  0  0  0  0  0  0  0  0
    1.4289   -0.0000    0.0000 O   0  0  0  0  0  0  0  0  0  0  0  0
    2.1434   -0.4125    0.0000 C   0  0  0  0  0  0  0  0  0  0  0  0
    2.8579   -0.0000    0.0000 C   0  0  0  0  0  0  0  0  0  0  0  0
    3.5724   -0.4125    0.0000 C   0  0  0  0  0  0  0  0  0  0  0  0
    3.5724   -1.2375    0.0000 C   0  0  0  0  0  0  0  0  0  0  0  0
    2.8579   -1.6500    0.0000 C   0  0  0  0  0  0  0  0  0  0  0  0
    2.1434   -1.2375    0.0000 C   0  0  0  0  0  0  0  0  0  0  0  0
    1.4289   -1.6500    0.0000 C   0  0  0  0  0  0  0  0  0  0  0  0
    1.4289   -2.4750    0.0000 O   0  0  0  0  0  0  0  0  0  0  0  0
    0.7145   -1.2375    0.0000 C   0  0  0  0  0  0  0  0  0  0  0  0
    2.8579   -2.4750    0.0000 O   0  0  0  0  0  0  0  0  0  0  0  0
    4.2868    0.0000    0.0000 O   0  0  0  0  0  0  0  0  0  0  0  0
   -0.0000    0.0000    0.0000 C   0  0  0  0  0  0  0  0  0  0  0  0
   -0.7145   -0.4125    0.0000 C   0  0  0  0  0  0  0  0  0  0  0  0
   -1.4289    0.0000    0.0000 C   0  0  0  0  0  0  0  0  0  0  0  0
   -1.4289    0.8250    0.0000 C   0  0  0  0  0  0  0  0  0  0  0  0
   -2.1434    1.2375    0.0000 O   0  0  0  0  0  0  0  0  0  0  0  0
   -2.8579    0.8250    0.0000 C   0  0  0  0  0  0  0  0  0  0  0  0
   -0.7145    1.2375    0.0000 C   0  0  0  0  0  0  0  0  0  0  0  0
   -0.0000    0.8250    0.0000 C   0  0  0  0  0  0  0  0  0  0  0  0
   -2.1434   -0.4125    0.0000 O   0  0  0  0  0  0  0  0  0  0  0  0
  1  2  1  0  0  0  0
  2  3  1  0  0  0  0
  3  4  2  0  0  0  0
  4  5  1  0  0  0  0
  5  6  2  0  0  0  0
  6  7  1  0  0  0  0
  7  8  2  0  0  0  0
  3  8  1  0  0  0  0
  8  9  1  0  0  0  0
  9 10  2  0  0  0  0
  9 11  1  0  0  0  0
  1 11  1  0  0  0  0
  7 12  1  0  0  0  0
  5 13  1  0  0  0  0
  1 14  1  1  0  0  0
 14 15  2  0  0  0  0
 15 16  1  0  0  0  0
 16 17  2  0  0  0  0
 17 18  1  0  0  0  0
 18 19  1  0  0  0  0
 17 20  1  0  0  0  0
 20 21  2  0  0  0  0
 14 21  1  0  0  0  0
 16 22  1  0  0  0  0
M  END
>  <Name>
Hesperetin

>  <CAS>
520-33-2

>  <Formula>
C16H14O6

>  <MolWt>
302.27 

>  <Bioactivity>
Hesperetin is a bioflavonoid and, to be more specific, a flavanone.

>  <Pathways>
Immunology/Inflammation

>  <Target>
TGF-beta/Smad inhibitor; Histamine Receptor antagonist

>  <Receptor>
TGF-beta/Smad; Histamine Receptor

>  <Reference>
1. Palit S, et al. J Cell Physiol. 2015 Aug;230(8):1729-39. 

$$$$
T2223
  Mrv1561503291623562D          

 16 18  0  0  0  0            999 V2000
   -0.6284   -0.6979    0.0000 C   0  0  0  0  0  0  0  0  0  0  0  0
   -0.1435   -1.3654    0.0000 N   0  0  0  0  0  0  0  0  0  0  0  0
    0.6411   -1.1104    0.0000 C   0  0  0  0  0  0  0  0  0  0  0  0
    0.6411   -0.2854    0.0000 C   0  0  0  0  0  0  0  0  0  0  0  0
    1.3556    0.1271    0.0000 C   0  0  0  0  0  0  0  0  0  0  0  0
    2.0701   -0.2854    0.0000 N   0  0  0  0  0  0  0  0  0  0  0  0
    2.0701   -1.1104    0.0000 C   0  0  0  0  0  0  0  0  0  0  0  0
    1.3556   -1.5229    0.0000 N   0  0  0  0  0  0  0  0  0  0  0  0
    1.3556    0.9521    0.0000 N   0  0  0  0  0  0  0  0  0  0  0  0
    0.6411    1.3646    0.0000 C   0  0  0  0  0  0  0  0  0  0  0  0
    0.6411    2.1896    0.0000 C   0  0  0  0  0  0  0  0  0  0  0  0
   -0.0263    2.6745    0.0000 C   0  0  0  0  0  0  0  0  0  0  0  0
    0.2286    3.4591    0.0000 C   0  0  0  0  0  0  0  0  0  0  0  0
    1.0536    3.4591    0.0000 C   0  0  0  0  0  0  0  0  0  0  0  0
    1.3086    2.6745    0.0000 O   0  0  0  0  0  0  0  0  0  0  0  0
   -0.1435   -0.0305    0.0000 N   0  0  0  0  0  0  0  0  0  0  0  0
  1  2  2  0  0  0  0
  2  3  1  0  0  0  0
  3  4  2  0  0  0  0
  4  5  1  0  0  0  0
  5  6  2  0  0  0  0
  6  7  1  0  0  0  0
  7  8  2  0  0  0  0
  3  8  1  0  0  0  0
  5  9  1  0  0  0  0
  9 10  1  0  0  0  0
 10 11  1  0  0  0  0
 11 12  2  0  0  0  0
 12 13  1  0  0  0  0
 13 14  2  0  0  0  0
 14 15  1  0  0  0  0
 11 15  1  0  0  0  0
  4 16  1  0  0  0  0
  1 16  1  0  0  0  0
M  END
>  <Name>
Kinetin

>  <CAS>
525-79-1

>  <Formula>
C10H9N5O

>  <MolWt>
215.21 

>  <Bioactivity>
Kinetin is a type of cytokinin, a class of plant hormone that promotes cell division.

>  <Pathways>
Others

>  <Target>
Others

>  <Receptor>
Others

>  <Reference>
1. Chiu PC, et al. J Cosmet Dermatol, 2007, 6(4), 243-249.

$$$$
T2921
  Mrv1561503291623562D          

 26 27  0  0  1  0            999 V2000
   -0.8730    0.7863    0.0000 C   0  0  0  0  0  0  0  0  0  0  0  0
   -0.9152   -0.0376    0.0000 C   0  0  0  0  0  0  0  0  0  0  0  0
   -1.5022   -1.2757    0.0000 C   0  0  0  0  0  0  0  0  0  0  0  0
   -2.1391   -0.7513    0.0000 N   0  0  0  0  0  0  0  0  0  0  0  0
   -2.2186    0.0699    0.0000 C   0  0  0  0  0  0  0  0  0  0  0  0
   -1.6942    0.7068    0.0000 C   0  0  0  0  0  0  0  0  0  0  0  0
   -2.8745   -1.1908    0.0000 C   0  0  0  0  0  0  0  0  0  0  0  0
   -0.6810   -1.1962    0.0000 C   0  0  0  0  0  0  0  0  0  0  0  0
   -0.1341   -0.7916    0.0000 C   0  0  0  0  0  0  0  0  0  0  0  0
   -0.2361    0.2619    0.0000 C   0  0  0  0  0  0  0  0  0  0  0  0
    0.2030    0.7188    0.0000 C   0  0  0  0  0  0  0  0  0  0  0  0
    1.1862    0.3996    0.0000 C   0  0  0  0  0  0  0  0  0  0  0  0
    1.9484    0.9202    0.0000 O   0  0  0  0  0  0  0  0  0  0  0  0
    2.7864    0.6640    0.0000 C   0  0  0  0  0  0  0  0  0  0  0  0
    1.2432   -0.1893    0.0000 C   0  0  0  0  0  0  0  0  0  0  0  0
    0.5943   -0.9010    0.0000 C   0  0  0  0  0  0  0  0  0  0  0  0
    0.4326    1.6411    0.0000 O   0  0  0  0  0  0  0  0  0  0  0  0
   -0.2228   -0.4862    0.0000 C   0  0  0  0  0  0  0  0  0  0  0  0
    0.5119   -0.1108    0.0000 C   0  0  0  0  0  0  0  0  0  0  0  0
    1.2701   -0.7566    0.0000 O   0  0  0  0  0  0  0  0  0  0  0  0
    1.5916   -1.6116    0.0000 C   0  0  0  0  0  0  0  0  0  0  0  0
    0.5541    0.7132    0.0000 C   0  0  0  0  0  0  0  0  0  0  0  0
    1.3076    1.2554    0.0000 O   0  0  0  0  0  0  0  0  0  0  0  0
   -0.1384    1.1617    0.0000 C   0  0  0  0  0  0  0  0  0  0  0  0
    5.9685    0.0000    0.0000 H   0  3  0  0  0  0  0  0  0  0  0  0
    5.1435    0.0000    0.0000 Cl  0  5  0  0  0  0  0  0  0  0  0  0
  1  2  1  0  0  0  0
  2  3  1  0  0  0  0
  3  4  1  0  0  0  0
  4  5  1  0  0  0  0
  5  6  1  0  0  0  0
  1  6  1  0  0  0  0
  4  7  1  0  0  0  0
  3  8  1  0  0  0  0
  8  9  1  0  0  0  0
  9 10  2  0  0  0  0
  1 10  1  0  0  0  0
 10 11  1  0  0  0  0
 11 12  2  0  0  0  0
 12 13  1  0  0  0  0
 13 14  1  0  0  0  0
 12 15  1  0  0  0  0
 15 16  2  0  0  0  0
  9 16  1  0  0  0  0
 11 17  1  0  0  0  0
  2 18  1  0  0  0  0
 18 19  2  0  0  0  0
 19 20  1  0  0  0  0
 20 21  1  0  0  0  0
 19 22  1  0  0  0  0
 22 23  2  0  0  0  0
 22 24  1  0  0  0  0
  1 24  1  0  0  0  0
M  CHG  2  25   1  26  -1
M  END
>  <Name>
Sinomenine HCl

>  <CAS>
6080-33-7

>  <Formula>
C19H24ClNO4

>  <MolWt>
365.85 

>  <Bioactivity>
Extracted from Sinomenium Acutum Rehderett Wilson;Store the product in sealed, cool and dry condition

>  <Pathways>
Immunology/Inflammation

>  <Target>
NF-?B inhibitor

>  <Receptor>
NF-?B

>  <Reference>
1. Song L, et al. Biochem Biophys Res Commun. 2015 Aug 28;464(3):705-10.

$$$$
22232-54-8
  Mrv1561503291623562D          

 12 12  0  0  0  0            999 V2000
   -0.1467    3.1768    0.0000 C   0  0  0  0  0  0  0  0  0  0  0  0
   -0.1467    2.3518    0.0000 O   0  0  0  0  0  0  0  0  0  0  0  0
    0.5678    1.9393    0.0000 C   0  0  0  0  0  0  0  0  0  0  0  0
    0.5678    1.1143    0.0000 N   0  0  0  0  0  0  0  0  0  0  0  0
    1.2352    0.6294    0.0000 C   0  0  0  0  0  0  0  0  0  0  0  0
    0.9803   -0.1553    0.0000 N   0  0  0  0  0  0  0  0  0  0  0  0
    1.4652   -0.8227    0.0000 C   0  0  0  0  0  0  0  0  0  0  0  0
    0.1553   -0.1553    0.0000 C   0  0  0  0  0  0  0  0  0  0  0  0
   -0.0997    0.6294    0.0000 C   0  0  0  0  0  0  0  0  0  0  0  0
    2.0198    0.8843    0.0000 S   0  0  0  0  0  0  0  0  0  0  0  0
    1.2822    2.3518    0.0000 O   0  0  0  0  0  0  0  0  0  0  0  0
   -0.8612    3.5893    0.0000 C   0  0  0  0  0  0  0  0  0  0  0  0
  1  2  1  0  0  0  0
  2  3  1  0  0  0  0
  3  4  1  0  0  0  0
  4  5  1  0  0  0  0
  5  6  1  0  0  0  0
  6  7  1  0  0  0  0
  6  8  1  0  0  0  0
  8  9  2  0  0  0  0
  4  9  1  0  0  0  0
  5 10  2  0  0  0  0
  3 11  2  0  0  0  0
  1 12  1  0  0  0  0
M  END
>  <Name>
Carbimazole

>  <CAS>
22232-54-8

>  <Formula>
C7H10N2O2S

>  <MolWt>
186.23 

>  <Bioactivity>
An imidazole antithyroid agent. Carbimazole is metabolized to METHIMAZOLE, which is responsible for the antithyroid activity.

>  <Pathways>
Metabolism

>  <Target>
Thyroid peroxidase inhibitor

>  <Receptor>
Thyroid peroxidase

>  <Reference>
1. Guilhem I, et al. Thyroid. 2006 Oct;16(10):1041-5. 

$$$$
1672-63-5
  Mrv1561503291623562D          

 15 16  0  0  0  0            999 V2000
   -0.6078    1.1759    0.0000 C   0  0  0  0  0  0  0  0  0  0  0  0
   -1.3222    0.7634    0.0000 C   0  0  0  0  0  0  0  0  0  0  0  0
   -1.3222   -0.0616    0.0000 N   0  0  0  0  0  0  0  0  0  0  0  0
   -0.6548   -0.5465    0.0000 C   0  0  0  0  0  0  0  0  0  0  0  0
   -0.9097   -1.3312    0.0000 C   0  0  0  0  0  0  0  0  0  0  0  0
   -1.7347   -1.3312    0.0000 C   0  0  0  0  0  0  0  0  0  0  0  0
   -1.9897   -0.5465    0.0000 N   0  0  0  0  0  0  0  0  0  0  0  0
   -2.7743   -0.2916    0.0000 C   0  0  0  0  0  0  0  0  0  0  0  0
   -2.2197   -1.9986    0.0000 C   0  0  0  0  0  0  0  0  0  0  0  0
   -0.4248   -1.9986    0.0000 O   0  0  0  0  0  0  0  0  0  0  0  0
    0.1298   -0.2916    0.0000 O   0  0  0  0  0  0  0  0  0  0  0  0
   -2.0367    1.1759    0.0000 C   0  0  0  0  0  0  0  0  0  0  0  0
   -2.0367    2.0009    0.0000 C   0  0  0  0  0  0  0  0  0  0  0  0
   -1.3222    2.4134    0.0000 C   0  0  0  0  0  0  0  0  0  0  0  0
   -0.6078    2.0009    0.0000 C   0  0  0  0  0  0  0  0  0  0  0  0
  1  2  2  0  0  0  0
  2  3  1  0  0  0  0
  3  4  1  0  0  0  0
  4  5  1  0  0  0  0
  5  6  2  0  0  0  0
  6  7  1  0  0  0  0
  3  7  1  0  0  0  0
  7  8  1  0  0  0  0
  6  9  1  0  0  0  0
  5 10  1  0  0  0  0
  4 11  2  0  0  0  0
  2 12  1  0  0  0  0
 12 13  2  0  0  0  0
 13 14  1  0  0  0  0
 14 15  2  0  0  0  0
  1 15  1  0  0  0  0
M  END
>  <Name>
4-Hydroxyantipyrine

>  <CAS>
1672-63-5

>  <Formula>
C11H12N2O2

>  <MolWt>
204.23 

>  <Bioactivity>
Antipyrine is often used in testing the effects of other drugs or diseases on drug-metabolizing enzymes in the liver. (From Martindale, The Extra Pharmacopoeia, 30th ed, p29)

>  <Pathways>
Neuroscience

>  <Target>
COX

>  <Receptor>
Prostaglandin G/H synthase 1,2

>  <Reference>
1. Brune K, Neubert A. Clin Exp Rheumatol. 2001 Nov-Dec;19(6 Suppl 25):S51-7. 

$$$$
129-06-6
  Mrv1561503291623562D          

 24 25  0  0  0  0            999 V2000
   -1.9260   -0.3946    0.0000 C   0  0  0  0  0  0  0  0  0  0  0  0
   -2.6404    0.0179    0.0000 C   0  0  0  0  0  0  0  0  0  0  0  0
   -2.6404    0.8429    0.0000 C   0  0  0  0  0  0  0  0  0  0  0  0
   -1.9260    1.2554    0.0000 C   0  0  0  0  0  0  0  0  0  0  0  0
   -1.2115    0.8429    0.0000 C   0  0  0  0  0  0  0  0  0  0  0  0
   -1.2115    0.0179    0.0000 C   0  0  0  0  0  0  0  0  0  0  0  0
   -0.4970   -0.3946    0.0000 C   0  0  0  0  0  0  0  0  0  0  0  0
    0.2174    0.0179    0.0000 C   0  5  0  0  0  0  0  0  0  0  0  0
    0.9319   -0.3946    0.0000 C   0  0  0  0  0  0  0  0  0  0  0  0
    1.6464    0.0179    0.0000 C   0  0  0  0  0  0  0  0  0  0  0  0
    1.6464    0.8429    0.0000 C   0  0  0  0  0  0  0  0  0  0  0  0
    2.3609    1.2554    0.0000 C   0  0  0  0  0  0  0  0  0  0  0  0
    3.0753    0.8429    0.0000 C   0  0  0  0  0  0  0  0  0  0  0  0
    3.0753    0.0179    0.0000 C   0  0  0  0  0  0  0  0  0  0  0  0
    2.3609   -0.3946    0.0000 C   0  0  0  0  0  0  0  0  0  0  0  0
    0.9319    1.2554    0.0000 O   0  0  0  0  0  0  0  0  0  0  0  0
    0.2174    0.8429    0.0000 C   0  0  0  0  0  0  0  0  0  0  0  0
   -0.4970    1.2554    0.0000 O   0  0  0  0  0  0  0  0  0  0  0  0
    0.9319   -1.2196    0.0000 O   0  0  0  0  0  0  0  0  0  0  0  0
   -0.4970   -1.2196    0.0000 C   0  0  0  0  0  0  0  0  0  0  0  0
   -1.2115   -1.6321    0.0000 C   0  0  0  0  0  0  0  0  0  0  0  0
   -1.9260   -1.2196    0.0000 C   0  0  0  0  0  0  0  0  0  0  0  0
   -1.2115   -2.4571    0.0000 O   0  0  0  0  0  0  0  0  0  0  0  0
    5.4325    0.0000    0.0000 Na  0  3  0  0  0  0  0  0  0  0  0  0
  1  2  2  0  0  0  0
  2  3  1  0  0  0  0
  3  4  2  0  0  0  0
  4  5  1  0  0  0  0
  5  6  2  0  0  0  0
  1  6  1  0  0  0  0
  6  7  1  0  0  0  0
  7  8  1  0  0  0  0
  8  9  1  0  0  0  0
  9 10  1  0  0  0  0
 10 11  2  0  0  0  0
 11 12  1  0  0  0  0
 12 13  2  0  0  0  0
 13 14  1  0  0  0  0
 14 15  2  0  0  0  0
 10 15  1  0  0  0  0
 11 16  1  0  0  0  0
 16 17  1  0  0  0  0
  8 17  1  0  0  0  0
 17 18  2  0  0  0  0
  9 19  2  0  0  0  0
  7 20  1  0  0  0  0
 20 21  1  0  0  0  0
 21 22  1  0  0  0  0
 21 23  2  0  0  0  0
M  CHG  2   8  -1  24   1
M  END
>  <Name>
Warfarin sodium

>  <CAS>
129-06-6

>  <Formula>
C19H15NaO4

>  <MolWt>
330.31 

>  <Bioactivity>
An anticoagulant that acts by inhibiting the synthesis of vitamin K-dependent coagulation factors. Warfarin is indicated for the prophylaxis and/or treatment of venous thrombosis and its extension, pulmonary embolism, and atrial fibrillation with embolization. It is also used as an adjunct in the prophylaxis of systemic embolism after myocardial infarction. Warfarin is also used as a rodenticide. 

>  <Pathways>
Enzyme

>  <Target>
VKOR inhibitor

>  <Receptor>
VKOR complex subunit 1

>  <Reference>
1. Gebauer M. Bioorg Med Chem. 2007 Mar 15;15(6):2414-20. 

$$$$
T1602
  Mrv1561503291623562D          

 11  9  0  0  0  0            999 V2000
    3.3000    2.8579    0.0000 C   0  0  0  0  0  0  0  0  0  0  0  0
    2.4750    2.8579    0.0000 C   0  0  0  0  0  0  0  0  0  0  0  0
    2.0625    3.5724    0.0000 C   0  0  0  0  0  0  0  0  0  0  0  0
    1.2375    3.5724    0.0000 C   0  0  0  0  0  0  0  0  0  0  0  0
    0.8250    4.2868    0.0000 C   0  0  0  0  0  0  0  0  0  0  0  0
    2.0625    2.1434    0.0000 C   0  0  0  0  0  0  0  0  0  0  0  0
    2.4750    1.4289    0.0000 O   0  0  0  0  0  0  0  0  0  0  0  0
    1.2375    2.1434    0.0000 O   0  5  0  0  0  0  0  0  0  0  0  0
    3.7125    2.1434    0.0000 C   0  0  0  0  0  0  0  0  0  0  0  0
    4.5375    2.1434    0.0000 C   0  0  0  0  0  0  0  0  0  0  0  0
    0.4125    2.1434    0.0000 Na  0  3  0  0  0  0  0  0  0  0  0  0
  1  2  1  0  0  0  0
  2  3  1  0  0  0  0
  3  4  1  0  0  0  0
  4  5  1  0  0  0  0
  2  6  1  0  0  0  0
  6  7  2  0  0  0  0
  6  8  1  0  0  0  0
  1  9  1  0  0  0  0
  9 10  1  0  0  0  0
M  CHG  2   8  -1  11   1
M  END
>  <Name>
Valerin

>  <CAS>
1069-66-5

>  <Formula>
C8H15NaO2

>  <MolWt>
166.20 

>  <Bioactivity>
Valproic acid is a HDAC inhibitor by selectively inducing proteasomal degradation of HDAC2, used in the treatment of epilepsy, bipolar disorder and prevention of migraine headaches.

>  <Pathways>
Chromatin/Epigenetic;Neuroscience

>  <Target>
GABAR;HDAC inhibitor

>  <Receptor>
GABAR;HDAC2, HDAC9

>  <Reference>
1. Kramer OH, et al. EMBO J. 2003 Jul 1; 22(13): 3411-20. 

$$$$
124937-52-6
  Mrv1561503291623562D          

 34 34  0  0  1  0            999 V2000
   -0.3437    0.1191    0.0000 C   0  0  2  0  0  0  0  0  0  0  0  0
    0.4813    0.1191    0.0000 C   0  0  0  0  0  0  0  0  0  0  0  0
    0.8938   -0.5954    0.0000 C   0  0  0  0  0  0  0  0  0  0  0  0
    1.7188   -0.5954    0.0000 N   0  0  0  0  0  0  0  0  0  0  0  0
    2.1313   -1.3099    0.0000 C   0  0  0  0  0  0  0  0  0  0  0  0
    2.9562   -1.3099    0.0000 C   0  0  0  0  0  0  0  0  0  0  0  0
    1.7188   -2.0243    0.0000 C   0  0  0  0  0  0  0  0  0  0  0  0
    2.1313    0.1191    0.0000 C   0  0  0  0  0  0  0  0  0  0  0  0
    1.7188    0.8335    0.0000 C   0  0  0  0  0  0  0  0  0  0  0  0
    2.9563    0.1191    0.0000 C   0  0  0  0  0  0  0  0  0  0  0  0
   -0.7563    0.8335    0.0000 C   0  0  0  0  0  0  0  0  0  0  0  0
   -1.5812    0.8335    0.0000 C   0  0  0  0  0  0  0  0  0  0  0  0
   -1.9937    1.5480    0.0000 C   0  0  0  0  0  0  0  0  0  0  0  0
   -1.5812    2.2625    0.0000 C   0  0  0  0  0  0  0  0  0  0  0  0
   -0.7562    2.2625    0.0000 C   0  0  0  0  0  0  0  0  0  0  0  0
   -0.3437    1.5480    0.0000 C   0  0  0  0  0  0  0  0  0  0  0  0
    0.4813    1.5480    0.0000 O   0  0  0  0  0  0  0  0  0  0  0  0
   -2.8187    1.5480    0.0000 C   0  0  0  0  0  0  0  0  0  0  0  0
   -0.7563   -0.5954    0.0000 C   0  0  0  0  0  0  0  0  0  0  0  0
   -0.3438   -1.3099    0.0000 C   0  0  0  0  0  0  0  0  0  0  0  0
   -0.7563   -2.0243    0.0000 C   0  0  0  0  0  0  0  0  0  0  0  0
   -1.5813   -2.0243    0.0000 C   0  0  0  0  0  0  0  0  0  0  0  0
   -1.9938   -1.3099    0.0000 C   0  0  0  0  0  0  0  0  0  0  0  0
   -1.5812   -0.5954    0.0000 C   0  0  0  0  0  0  0  0  0  0  0  0
    6.8675    0.2063    0.0000 C   0  0  2  0  0  0  0  0  0  0  0  0
    6.8675    1.0313    0.0000 O   0  0  0  0  0  0  0  0  0  0  0  0
    6.1530   -0.2062    0.0000 C   0  0  1  0  0  0  0  0  0  0  0  0
    6.1530   -1.0312    0.0000 O   0  0  0  0  0  0  0  0  0  0  0  0
    5.4386    0.2063    0.0000 C   0  0  0  0  0  0  0  0  0  0  0  0
    4.7241   -0.2063    0.0000 O   0  0  0  0  0  0  0  0  0  0  0  0
    5.4386    1.0312    0.0000 O   0  0  0  0  0  0  0  0  0  0  0  0
    7.5820   -0.2062    0.0000 C   0  0  0  0  0  0  0  0  0  0  0  0
    8.2965    0.2063    0.0000 O   0  0  0  0  0  0  0  0  0  0  0  0
    7.5820   -1.0312    0.0000 O   0  0  0  0  0  0  0  0  0  0  0  0
  1  2  1  0  0  0  0
  2  3  1  0  0  0  0
  3  4  1  0  0  0  0
  4  5  1  0  0  0  0
  5  6  1  0  0  0  0
  5  7  1  0  0  0  0
  4  8  1  0  0  0  0
  8  9  1  0  0  0  0
  8 10  1  0  0  0  0
  1 11  1  0  0  0  0
 11 12  2  0  0  0  0
 12 13  1  0  0  0  0
 13 14  2  0  0  0  0
 14 15  1  0  0  0  0
 15 16  2  0  0  0  0
 11 16  1  0  0  0  0
 16 17  1  0  0  0  0
 13 18  1  0  0  0  0
  1 19  1  1  0  0  0
 19 20  2  0  0  0  0
 20 21  1  0  0  0  0
 21 22  2  0  0  0  0
 22 23  1  0  0  0  0
 23 24  2  0  0  0  0
 19 24  1  0  0  0  0
 25 26  1  1  0  0  0
 25 27  1  0  0  0  0
 27 28  1  1  0  0  0
 27 29  1  0  0  0  0
 29 30  2  0  0  0  0
 29 31  1  0  0  0  0
 25 32  1  0  0  0  0
 32 33  2  0  0  0  0
 32 34  1  0  0  0  0
M  END
>  <Name>
Tolterodine tartrate

>  <CAS>
124937-52-6

>  <Formula>
C22H31NO.C4H6O6

>  <MolWt>
475.58 

>  <Bioactivity>
Tolterodine is an antimuscarinic drug that is used to treat urinary incontinence. Tolterodine acts on M2 and M3 subtypes of muscarinic receptors.

>  <Pathways>
Neuroscience

>  <Target>
AChR antagonist

>  <Receptor>
Muscarinic AChR

>  <Reference>
1. Nilvebrant L, et al. Life Sci, 1997, 60(13-14), 1129-1136.

$$$$
T0814L
  Mrv1561503291623562D          

 24 26  0  0  1  0            999 V2000
    0.6773   -0.9323    0.0000 C   0  0  2  0  0  0  0  0  0  0  0  0
    0.6773   -0.1073    0.0000 N   0  0  0  0  0  0  0  0  0  0  0  0
    1.4620    0.1477    0.0000 C   0  0  2  0  0  0  0  0  0  0  0  0
    1.9469   -0.5198    0.0000 C   0  0  0  0  0  0  0  0  0  0  0  0
    2.5600    0.0323    0.0000 C   0  0  0  0  0  0  0  0  0  0  0  0
    2.5600   -1.0718    0.0000 C   0  0  0  0  0  0  0  0  0  0  0  0
    1.4620   -1.1872    0.0000 S   0  0  0  0  0  0  0  0  0  0  0  0
    1.7169    0.9323    0.0000 C   0  0  0  0  0  0  0  0  0  0  0  0
    2.5239    1.1038    0.0000 O   0  0  0  0  0  0  0  0  0  0  0  0
    1.1649    1.5454    0.0000 O   0  0  0  0  0  0  0  0  0  0  0  0
   -0.1477   -0.1073    0.0000 C   0  0  0  0  0  0  0  0  0  0  0  0
   -0.7310    0.4761    0.0000 O   0  0  0  0  0  0  0  0  0  0  0  0
   -0.1477   -0.9323    0.0000 C   0  0  1  0  0  0  0  0  0  0  0  0
   -0.7310   -1.5156    0.0000 N   0  0  0  0  0  0  0  0  0  0  0  0
   -1.5279   -1.3021    0.0000 C   0  0  0  0  0  0  0  0  0  0  0  0
   -2.1113   -1.8855    0.0000 C   0  0  1  0  0  0  0  0  0  0  0  0
   -2.9082   -1.6720    0.0000 C   0  0  0  0  0  0  0  0  0  0  0  0
   -3.4915   -2.2553    0.0000 C   0  0  0  0  0  0  0  0  0  0  0  0
   -4.2884   -2.0418    0.0000 C   0  0  0  0  0  0  0  0  0  0  0  0
   -4.5019   -1.2449    0.0000 C   0  0  0  0  0  0  0  0  0  0  0  0
   -3.9186   -0.6615    0.0000 C   0  0  0  0  0  0  0  0  0  0  0  0
   -3.1217   -0.8751    0.0000 C   0  0  0  0  0  0  0  0  0  0  0  0
   -1.8977   -2.6824    0.0000 N   0  0  0  0  0  0  0  0  0  0  0  0
   -1.7414   -0.5052    0.0000 O   0  0  0  0  0  0  0  0  0  0  0  0
  1  2  1  6  0  0  0
  2  3  1  0  0  0  0
  3  4  1  0  0  0  0
  4  5  1  0  0  0  0
  4  6  1  0  0  0  0
  4  7  1  0  0  0  0
  1  7  1  0  0  0  0
  3  8  1  1  0  0  0
  8  9  1  0  0  0  0
  8 10  2  0  0  0  0
  2 11  1  0  0  0  0
 11 12  2  0  0  0  0
 11 13  1  0  0  0  0
  1 13  1  0  0  0  0
 13 14  1  6  0  0  0
 14 15  1  0  0  0  0
 15 16  1  0  0  0  0
 16 17  1  0  0  0  0
 17 18  2  0  0  0  0
 18 19  1  0  0  0  0
 19 20  2  0  0  0  0
 20 21  1  0  0  0  0
 21 22  2  0  0  0  0
 17 22  1  0  0  0  0
 16 23  1  6  0  0  0
 15 24  2  0  0  0  0
M  END
>  <Name>
Ampicillin

>  <CAS>
69-53-4

>  <Formula>
C16H19N3O4S

>  <MolWt>
349.40 

>  <Bioactivity>
Semi-synthetic derivative of penicillin that functions as an orally active broad-spectrum antibiotic.


>  <Pathways>
Microbiology & Virology

>  <Target>
Antibiotic

>  <Receptor>
PBPs

>  <Reference>
1. Babu E, et al. Jpn J Pharmacol. 2002 Jan;88(1):69-76. 

$$$$
T1005L
  Mrv1561503291623562D          

 28 27  0  0  1  0            999 V2000
    1.4614    0.2005    0.0000 C   0  0  1  0  0  0  0  0  0  0  0  0
    2.2461    0.4555    0.0000 S   0  0  0  0  0  0  0  0  0  0  0  0
    2.7310   -0.2120    0.0000 C   0  0  0  0  0  0  0  0  0  0  0  0
    2.2461   -0.8794    0.0000 C   0  0  1  0  0  0  0  0  0  0  0  0
    1.4614   -0.6245    0.0000 N   0  0  0  0  0  0  0  0  0  0  0  0
    0.6364   -0.6245    0.0000 C   0  0  0  0  0  0  0  0  0  0  0  0
    0.0531   -1.2078    0.0000 O   0  0  0  0  0  0  0  0  0  0  0  0
    0.6364    0.2005    0.0000 C   0  0  1  0  0  0  0  0  0  0  0  0
    0.0531    0.7839    0.0000 N   0  0  0  0  0  0  0  0  0  0  0  0
   -0.7438    0.5704    0.0000 C   0  0  0  0  0  0  0  0  0  0  0  0
   -0.9573   -0.2265    0.0000 O   0  0  0  0  0  0  0  0  0  0  0  0
   -1.3272    1.1537    0.0000 C   0  0  2  0  0  0  0  0  0  0  0  0
   -1.1136    1.9506    0.0000 N   0  0  0  0  0  0  0  0  0  0  0  0
   -2.1241    0.9402    0.0000 C   0  0  0  0  0  0  0  0  0  0  0  0
   -2.3376    0.1433    0.0000 C   0  0  0  0  0  0  0  0  0  0  0  0
   -3.1345   -0.0702    0.0000 C   0  0  0  0  0  0  0  0  0  0  0  0
   -3.7178    0.5132    0.0000 C   0  0  0  0  0  0  0  0  0  0  0  0
   -4.5147    0.2996    0.0000 O   0  0  0  0  0  0  0  0  0  0  0  0
   -3.5043    1.3101    0.0000 C   0  0  0  0  0  0  0  0  0  0  0  0
   -2.7074    1.5236    0.0000 C   0  0  0  0  0  0  0  0  0  0  0  0
    2.5010   -1.6640    0.0000 C   0  0  0  0  0  0  0  0  0  0  0  0
    3.3080   -1.8355    0.0000 O   0  0  0  0  0  0  0  0  0  0  0  0
    1.9490   -2.2771    0.0000 O   0  0  0  0  0  0  0  0  0  0  0  0
    3.4497    0.1930    0.0000 C   0  0  0  0  0  0  0  0  0  0  0  0
    3.4497   -0.6169    0.0000 C   0  0  0  0  0  0  0  0  0  0  0  0
    5.8069    0.0000    0.0000 O   0  0  0  0  0  0  0  0  0  0  0  0
    0.0000   -3.9271    0.0000 O   0  0  0  0  0  0  0  0  0  0  0  0
    2.3571   -3.9271    0.0000 O   0  0  0  0  0  0  0  0  0  0  0  0
  1  2  1  0  0  0  0
  2  3  1  0  0  0  0
  3  4  1  0  0  0  0
  4  5  1  0  0  0  0
  1  5  1  1  0  0  0
  5  6  1  0  0  0  0
  6  7  2  0  0  0  0
  6  8  1  0  0  0  0
  1  8  1  0  0  0  0
  8  9  1  1  0  0  0
  9 10  1  0  0  0  0
 10 11  2  0  0  0  0
 10 12  1  0  0  0  0
 12 13  1  1  0  0  0
 12 14  1  0  0  0  0
 14 15  2  0  0  0  0
 15 16  1  0  0  0  0
 16 17  2  0  0  0  0
 17 18  1  0  0  0  0
 17 19  1  0  0  0  0
 19 20  2  0  0  0  0
 14 20  1  0  0  0  0
  4 21  1  6  0  0  0
 21 22  2  0  0  0  0
 21 23  1  0  0  0  0
  3 24  1  0  0  0  0
  3 25  1  0  0  0  0
M  END
>  <Name>
Amoxicillin trihydrate

>  <CAS>
61336-70-7

>  <Formula>
C16H19N3O5S3(H2O)

>  <MolWt>
419.45 

>  <Bioactivity>
A broad-spectrum semisynthetic antibiotic similar to AMPICILLIN except that its resistance to gastric acid permits higher serum levels with oral administration. 

>  <Pathways>
Microbiology & Virology

>  <Target>
Antibiotic

>  <Receptor>
PBPs

>  <Reference>
1. Yawalkar N, et al. J Invest Dermatol, 2000, 115(4), 647-652.


$$$$
T1687
  Mrv1561503291623562D          

 36 35  0  0  1  0            999 V2000
   -0.7145    0.4383    0.0000 C   0  0  0  0  0  0  0  0  0  0  0  0
   -0.0000    0.8508    0.0000 C   0  0  0  0  0  0  0  0  0  0  0  0
   -0.0000    1.6758    0.0000 O   0  0  0  0  0  0  0  0  0  0  0  0
    0.7145    0.4383    0.0000 C   0  0  0  0  0  0  0  0  0  0  0  0
    1.4289    0.8508    0.0000 C   0  0  0  0  0  0  0  0  0  0  0  0
    2.1434    0.4383    0.0000 C   0  0  0  0  0  0  0  0  0  0  0  0
    2.1434   -0.3867    0.0000 C   0  0  0  0  0  0  0  0  0  0  0  0
    1.4289   -0.7992    0.0000 C   0  0  0  0  0  0  0  0  0  0  0  0
    0.7145   -0.3867    0.0000 C   0  0  0  0  0  0  0  0  0  0  0  0
   -0.0000   -0.7992    0.0000 C   0  0  0  0  0  0  0  0  0  0  0  0
   -0.0000   -1.6242    0.0000 O   0  0  0  0  0  0  0  0  0  0  0  0
   -0.7145   -0.3867    0.0000 C   0  0  0  0  0  0  0  0  0  0  0  0
   -0.7145   -1.2117    0.0000 O   0  0  0  0  0  0  0  0  0  0  0  0
   -1.4289   -0.7992    0.0000 C   0  0  0  0  0  0  0  0  0  0  0  0
   -1.4289   -1.6242    0.0000 O   0  0  0  0  0  0  0  0  0  0  0  0
   -2.1434   -0.3867    0.0000 C   0  0  0  0  0  0  0  0  0  0  0  0
   -2.1434    0.4383    0.0000 C   0  0  0  0  0  0  0  0  0  0  0  0
   -2.8579    0.8508    0.0000 O   0  0  0  0  0  0  0  0  0  0  0  0
   -1.4289    0.8508    0.0000 C   0  0  0  0  0  0  0  0  0  0  0  0
   -1.4289    1.6758    0.0000 N   0  0  0  0  0  0  0  0  0  0  0  0
   -0.7145    2.0883    0.0000 C   0  0  0  0  0  0  0  0  0  0  0  0
   -2.1434    2.0883    0.0000 C   0  0  0  0  0  0  0  0  0  0  0  0
   -2.8579   -0.7992    0.0000 C   0  0  0  0  0  0  0  0  0  0  0  0
   -2.8579   -1.6242    0.0000 O   0  0  0  0  0  0  0  0  0  0  0  0
   -3.5724   -0.3867    0.0000 N   0  0  0  0  0  0  0  0  0  0  0  0
    1.4289   -1.6242    0.0000 O   0  0  0  0  0  0  0  0  0  0  0  0
    2.8579   -0.7992    0.0000 C   0  0  0  0  0  0  0  0  0  0  0  0
    3.5724   -0.3867    0.0000 C   0  0  0  0  0  0  0  0  0  0  0  0
    3.5724    0.4383    0.0000 C   0  0  0  0  0  0  0  0  0  0  0  0
    2.8579    0.8508    0.0000 C   0  0  0  0  0  0  0  0  0  0  0  0
    2.8579   -1.6242    0.0000 O   0  0  0  0  0  0  0  0  0  0  0  0
    1.4289    1.6758    0.0000 C   0  0  0  0  0  0  0  0  0  0  0  0
    6.7545    0.0000    0.0000 H   0  3  0  0  0  0  0  0  0  0  0  0
    5.9295    0.0000    0.0000 Cl  0  5  0  0  0  0  0  0  0  0  0  0
    0.0000   -3.2742    0.0000 O   0  0  0  0  0  0  0  0  0  0  0  0
    2.3571   -3.2742    0.0000 O   0  0  0  0  0  0  0  0  0  0  0  0
  1  2  1  0  0  0  0
  2  3  1  0  0  0  0
  2  4  1  0  0  0  0
  4  5  1  0  0  0  0
  5  6  1  0  0  0  0
  6  7  2  0  0  0  0
  7  8  1  0  0  0  0
  8  9  2  0  0  0  0
  4  9  1  0  0  0  0
  9 10  1  0  0  0  0
 10 11  2  0  0  0  0
 10 12  1  0  0  0  0
  1 12  1  0  0  0  0
 12 13  1  0  0  0  0
 12 14  1  0  0  0  0
 14 15  2  0  0  0  0
 14 16  1  0  0  0  0
 16 17  1  0  0  0  0
 17 18  2  0  0  0  0
 17 19  1  0  0  0  0
  1 19  1  0  0  0  0
 19 20  1  0  0  0  0
 20 21  1  0  0  0  0
 20 22  1  0  0  0  0
 16 23  2  0  0  0  0
 23 24  1  0  0  0  0
 23 25  1  0  0  0  0
  8 26  1  0  0  0  0
  7 27  1  0  0  0  0
 27 28  2  0  0  0  0
 28 29  1  0  0  0  0
 29 30  2  0  0  0  0
  6 30  1  0  0  0  0
 27 31  1  0  0  0  0
  5 32  1  0  0  0  0
M  CHG  2  33   1  34  -1
M  END
>  <Name>
Doxycycline

>  <CAS>
564-25-0

>  <Formula>
C22H24N2O8

>  <MolWt>
444.44 

>  <Bioactivity>
Doxycycline is a synthetic tetracycline derivative with similar antimicrobial activity.


>  <Pathways>
Microbiology & Virology  

>  <Target>
Antibiotic

>  <Receptor>
30S ribosomal protein, 16S ribosomal protein

>  <Reference>
1. Griffin MO, et al. Am J Physiol Cell Physiol. 2010 Sep;299(3):C539-48. 

$$$$
T0310
  Mrv1561503291623562D          

 14 14  0  0  0  0            999 V2000
    1.4289    0.8250    0.0000 C   0  0  0  0  0  0  0  0  0  0  0  0
    1.4289    0.0000    0.0000 C   0  0  0  0  0  0  0  0  0  0  0  0
    0.7145   -0.4125    0.0000 C   0  0  0  0  0  0  0  0  0  0  0  0
   -0.0000    0.0000    0.0000 C   0  0  0  0  0  0  0  0  0  0  0  0
   -0.0000    0.8250    0.0000 C   0  0  0  0  0  0  0  0  0  0  0  0
    0.7145    1.2375    0.0000 C   0  0  0  0  0  0  0  0  0  0  0  0
    0.7145    2.0625    0.0000 C   0  0  0  0  0  0  0  0  0  0  0  0
    0.0000    2.4750    0.0000 C   0  0  0  0  0  0  0  0  0  0  0  0
    0.0000    3.3000    0.0000 O   0  0  0  0  0  0  0  0  0  0  0  0
   -0.7145    2.0625    0.0000 O   0  0  0  0  0  0  0  0  0  0  0  0
    0.7145   -1.2375    0.0000 N   0  0  0  0  0  0  0  0  0  0  0  0
   -0.0000   -1.6500    0.0000 C   0  0  0  0  0  0  0  0  0  0  0  0
   -0.0000   -2.4750    0.0000 C   0  0  0  0  0  0  0  0  0  0  0  0
   -0.7145   -1.2375    0.0000 O   0  0  0  0  0  0  0  0  0  0  0  0
  1  2  2  0  0  0  0
  2  3  1  0  0  0  0
  3  4  2  0  0  0  0
  4  5  1  0  0  0  0
  5  6  2  0  0  0  0
  1  6  1  0  0  0  0
  6  7  1  0  0  0  0
  7  8  1  0  0  0  0
  8  9  1  0  0  0  0
  8 10  2  0  0  0  0
  3 11  1  0  0  0  0
 11 12  1  0  0  0  0
 12 13  1  0  0  0  0
 12 14  2  0  0  0  0
M  END
>  <Name>
Actarit

>  <CAS>
18699-02-0

>  <Formula>
C10H11NO3

>  <MolWt>
193.20 

>  <Bioactivity>
Actarit is an anti-inflammatory drug developed in Japan for use in rheumatoid arthritis

>  <Pathways>
Others

>  <Target>
Others

>  <Receptor>
Others

>  <Reference>
1. Canudas N, et al. Arzneimittelforschung. 2008;58(4):182-7. 

$$$$
T0193
  Mrv1561503291623562D          

 49 49  0  0  0  0            999 V2000
   -2.8889   -3.8739    0.0000 H   0  3  0  0  0  0  0  0  0  0  0  0
    6.0090    0.0000    0.0000 H   0  3  0  0  0  0  0  0  0  0  0  0
    0.6834   -0.1614    0.0000 C   0  0  0  0  0  0  0  0  0  0  0  0
    0.6834   -0.9864    0.0000 O   0  0  0  0  0  0  0  0  0  0  0  0
    1.3979   -1.3989    0.0000 C   0  0  0  0  0  0  0  0  0  0  0  0
    2.1123   -0.9864    0.0000 O   0  0  0  0  0  0  0  0  0  0  0  0
    1.3979   -2.2239    0.0000 C   0  0  0  0  0  0  0  0  0  0  0  0
    2.1123   -2.6364    0.0000 C   0  0  0  0  0  0  0  0  0  0  0  0
    2.1123   -3.4614    0.0000 N   0  0  0  0  0  0  0  0  0  0  0  0
    1.3979   -3.8739    0.0000 C   0  0  0  0  0  0  0  0  0  0  0  0
    0.6834   -3.4614    0.0000 C   0  0  0  0  0  0  0  0  0  0  0  0
    0.6834   -2.6364    0.0000 C   0  0  0  0  0  0  0  0  0  0  0  0
   -0.0311   -2.2239    0.0000 C   0  0  0  0  0  0  0  0  0  0  0  0
   -0.0311   -1.3989    0.0000 C   0  0  0  0  0  0  0  0  0  0  0  0
   -0.7455   -0.9864    0.0000 C   0  0  0  0  0  0  0  0  0  0  0  0
   -1.4600   -1.3989    0.0000 C   0  0  0  0  0  0  0  0  0  0  0  0
   -1.4600   -2.2239    0.0000 C   0  0  0  0  0  0  0  0  0  0  0  0
   -0.7455   -2.6364    0.0000 C   0  0  0  0  0  0  0  0  0  0  0  0
   -2.1745   -2.6364    0.0000 N   0  3  0  0  0  0  0  0  0  0  0  0
   -2.1745   -3.4614    0.0000 O   0  5  0  0  0  0  0  0  0  0  0  0
   -2.8889   -2.2239    0.0000 O   0  0  0  0  0  0  0  0  0  0  0  0
   -0.0311   -3.8739    0.0000 C   0  0  0  0  0  0  0  0  0  0  0  0
   -0.7455   -3.4614    0.0000 O   0  0  0  0  0  0  0  0  0  0  0  0
   -1.4600   -3.8739    0.0000 C   0  0  0  0  0  0  0  0  0  0  0  0
   -0.0311   -4.6989    0.0000 O   0  0  0  0  0  0  0  0  0  0  0  0
    1.3979   -4.6989    0.0000 C   0  0  0  0  0  0  0  0  0  0  0  0
    2.8268   -2.2239    0.0000 C   0  0  0  0  0  0  0  0  0  0  0  0
   -0.0311    0.2511    0.0000 C   0  0  0  0  0  0  0  0  0  0  0  0
   -0.0311    1.0761    0.0000 N   0  0  0  0  0  0  0  0  0  0  0  0
   -0.7455    1.4886    0.0000 C   0  0  0  0  0  0  0  0  0  0  0  0
   -0.7455    2.3136    0.0000 C   0  0  0  0  0  0  0  0  0  0  0  0
   -0.0311    2.7261    0.0000 N   0  0  0  0  0  0  0  0  0  0  0  0
   -0.0311    3.5511    0.0000 C   0  0  0  0  0  0  0  0  0  0  0  0
   -0.7455    3.9636    0.0000 C   0  0  0  0  0  0  0  0  0  0  0  0
   -1.4600    3.5511    0.0000 C   0  0  0  0  0  0  0  0  0  0  0  0
   -2.1745    3.9636    0.0000 C   0  0  0  0  0  0  0  0  0  0  0  0
   -2.1745    4.7886    0.0000 C   0  0  0  0  0  0  0  0  0  0  0  0
   -1.4600    5.2011    0.0000 C   0  0  0  0  0  0  0  0  0  0  0  0
   -0.7455    4.7886    0.0000 C   0  0  0  0  0  0  0  0  0  0  0  0
    0.6834    3.9636    0.0000 C   0  0  0  0  0  0  0  0  0  0  0  0
    0.6834    4.7886    0.0000 C   0  0  0  0  0  0  0  0  0  0  0  0
    1.3979    5.2011    0.0000 C   0  0  0  0  0  0  0  0  0  0  0  0
    2.1123    4.7886    0.0000 C   0  0  0  0  0  0  0  0  0  0  0  0
    2.1123    3.9636    0.0000 C   0  0  0  0  0  0  0  0  0  0  0  0
    1.3979    3.5511    0.0000 C   0  0  0  0  0  0  0  0  0  0  0  0
    0.6834    2.3136    0.0000 C   0  0  0  0  0  0  0  0  0  0  0  0
    0.6834    1.4886    0.0000 C   0  0  0  0  0  0  0  0  0  0  0  0
    5.1840    0.0000    0.0000 Cl  0  5  0  0  0  0  0  0  0  0  0  0
    0.0000   -6.3489    0.0000 Cl  0  5  0  0  0  0  0  0  0  0  0  0
  3  4  1  0  0  0  0
  4  5  1  0  0  0  0
  5  6  2  0  0  0  0
  5  7  1  0  0  0  0
  7  8  2  0  0  0  0
  8  9  1  0  0  0  0
  9 10  1  0  0  0  0
 10 11  2  0  0  0  0
 11 12  1  0  0  0  0
  7 12  1  0  0  0  0
 12 13  1  0  0  0  0
 13 14  2  0  0  0  0
 14 15  1  0  0  0  0
 15 16  2  0  0  0  0
 16 17  1  0  0  0  0
 17 18  2  0  0  0  0
 13 18  1  0  0  0  0
 17 19  1  0  0  0  0
 19 20  1  0  0  0  0
 19 21  2  0  0  0  0
 11 22  1  0  0  0  0
 22 23  1  0  0  0  0
 23 24  1  0  0  0  0
 22 25  2  0  0  0  0
 10 26  1  0  0  0  0
  8 27  1  0  0  0  0
  3 28  1  0  0  0  0
 28 29  1  0  0  0  0
 29 30  1  0  0  0  0
 30 31  1  0  0  0  0
 31 32  1  0  0  0  0
 32 33  1  0  0  0  0
 33 34  1  0  0  0  0
 34 35  2  0  0  0  0
 35 36  1  0  0  0  0
 36 37  2  0  0  0  0
 37 38  1  0  0  0  0
 38 39  2  0  0  0  0
 34 39  1  0  0  0  0
 33 40  1  0  0  0  0
 40 41  2  0  0  0  0
 41 42  1  0  0  0  0
 42 43  2  0  0  0  0
 43 44  1  0  0  0  0
 44 45  2  0  0  0  0
 40 45  1  0  0  0  0
 32 46  1  0  0  0  0
 46 47  1  0  0  0  0
 29 47  1  0  0  0  0
M  CHG  6   1   1   2   1  19   1  20  -1  48  -1  49  -1
M  END
>  <Name>
Manidipine 2HCl

>  <CAS>
89226-75-5

>  <Formula>
C35H40Cl2N4O6

>  <MolWt>
683.62 

>  <Bioactivity>
Manidipine dihydrochloride is a dihydropyridine compound and a calcium channel blocker for Ca2+ current with IC50 of 2.6 nM.

>  <Pathways>
Membrane Transporter/Ion Channel

>  <Target>
Calcium Channel antagonist

>  <Receptor>
Calcium Channel

>  <Reference>
1. Tohse N, et al. Eur J Pharmacol, 1993, 249(2), 231-233.

$$$$
T0122
  Mrv1561503291623562D          

 23 25  0  0  1  0            999 V2000
    2.7770   -0.3020    0.0000 C   0  0  2  0  0  0  0  0  0  0  0  0
    2.3645    0.4125    0.0000 C   0  0  2  0  0  0  0  0  0  0  0  0
    1.5395    0.4125    0.0000 C   0  0  0  0  0  0  0  0  0  0  0  0
    1.1270   -0.3020    0.0000 C   0  0  0  0  0  0  0  0  0  0  0  0
    1.5395   -1.0164    0.0000 C   0  0  0  0  0  0  0  0  0  0  0  0
    2.3645   -1.0164    0.0000 O   0  0  0  0  0  0  0  0  0  0  0  0
    1.1270   -1.7309    0.0000 O   0  0  0  0  0  0  0  0  0  0  0  0
    0.3020   -0.3020    0.0000 C   0  0  0  0  0  0  0  0  0  0  0  0
   -0.1105    0.4125    0.0000 C   0  0  0  0  0  0  0  0  0  0  0  0
    0.3020    1.1270    0.0000 C   0  0  0  0  0  0  0  0  0  0  0  0
    1.1270    1.1270    0.0000 C   0  0  0  0  0  0  0  0  0  0  0  0
    1.5395    1.8414    0.0000 O   0  0  0  0  0  0  0  0  0  0  0  0
   -0.1105    1.8414    0.0000 O   0  0  0  0  0  0  0  0  0  0  0  0
   -0.9355    1.8414    0.0000 C   0  0  0  0  0  0  0  0  0  0  0  0
   -0.9355    0.4125    0.0000 O   0  0  0  0  0  0  0  0  0  0  0  0
    2.7770    1.1270    0.0000 O   0  0  0  0  0  0  0  0  0  0  0  0
    3.6020    1.1270    0.0000 C   0  0  1  0  0  0  0  0  0  0  0  0
    4.0145    0.4125    0.0000 C   0  0  1  0  0  0  0  0  0  0  0  0
    4.8395    0.4125    0.0000 O   0  0  0  0  0  0  0  0  0  0  0  0
    3.6020   -0.3020    0.0000 C   0  0  2  0  0  0  0  0  0  0  0  0
    4.0145   -1.0164    0.0000 O   0  0  0  0  0  0  0  0  0  0  0  0
    4.0145    1.8414    0.0000 C   0  0  0  0  0  0  0  0  0  0  0  0
    4.8395    1.8414    0.0000 O   0  0  0  0  0  0  0  0  0  0  0  0
  1  2  1  0  0  0  0
  2  3  1  0  0  0  0
  3  4  2  0  0  0  0
  4  5  1  0  0  0  0
  5  6  1  0  0  0  0
  1  6  1  1  0  0  0
  5  7  2  0  0  0  0
  4  8  1  0  0  0  0
  8  9  2  0  0  0  0
  9 10  1  0  0  0  0
 10 11  2  0  0  0  0
  3 11  1  0  0  0  0
 11 12  1  0  0  0  0
 10 13  1  0  0  0  0
 13 14  1  0  0  0  0
  9 15  1  0  0  0  0
  2 16  1  6  0  0  0
 16 17  1  0  0  0  0
 17 18  1  0  0  0  0
 18 19  1  1  0  0  0
 18 20  1  0  0  0  0
  1 20  1  0  0  0  0
 20 21  1  6  0  0  0
 17 22  1  6  0  0  0
 22 23  1  0  0  0  0
M  END
>  <Name>
Bengenin

>  <CAS>
477-90-7

>  <Formula>
C14H16O9

>  <MolWt>
328.27 

>  <Bioactivity>
Bergenin monohydrate is an isocoumarin isolated from various medicinal plants. Shows mild anti-HIV activity,antihepatotoxic activity and antiulcer activity.

>  <Pathways>
MAPK Signaling;Immunology/Inflammation

>  <Target>
NO agonist;TNF-alpha inhibitor, IL inhibitor; NF-?B inhibitor

>  <Receptor>
NO, TNF-?, IL-1?, and IL-6 ;NF-?B

>  <Reference>
1. Gao XJ, et al. Inflammation. 2015 Jun;38(3):1142-50. 

$$$$
T0777
  Mrv1561503291623562D          

 61 64  0  0  1  0            999 V2000
   -0.0000   -2.4750    0.0000 C   0  0  2  0  0  0  0  0  0  0  0  0
    0.7145   -2.8875    0.0000 O   0  0  0  0  0  0  0  0  0  0  0  0
    0.7145   -3.7125    0.0000 C   0  0  1  0  0  0  0  0  0  0  0  0
   -0.0000   -4.1250    0.0000 C   0  0  1  0  0  0  0  0  0  0  0  0
   -0.0000   -4.9500    0.0000 O   0  0  0  0  0  0  0  0  0  0  0  0
   -0.7145   -3.7125    0.0000 C   0  0  2  0  0  0  0  0  0  0  0  0
   -1.4289   -4.1250    0.0000 N   0  0  0  0  0  0  0  0  0  0  0  0
   -2.1434   -3.7125    0.0000 C   0  0  0  0  0  0  0  0  0  0  0  0
   -1.4289   -4.9500    0.0000 C   0  0  0  0  0  0  0  0  0  0  0  0
   -0.7145   -2.8875    0.0000 C   0  0  1  0  0  0  0  0  0  0  0  0
   -1.4289   -2.4750    0.0000 O   0  0  0  0  0  0  0  0  0  0  0  0
    1.4289   -4.1250    0.0000 C   0  0  0  0  0  0  0  0  0  0  0  0
   -0.0000   -1.6500    0.0000 O   0  0  0  0  0  0  0  0  0  0  0  0
    0.7145   -1.2375    0.0000 C   0  0  1  0  0  0  0  0  0  0  0  0
    0.7145   -0.4125    0.0000 C   0  0  2  0  0  0  0  0  0  0  0  0
   -0.0000    0.0000    0.0000 C   0  0  0  0  0  0  0  0  0  0  0  0
   -0.0000    0.8250    0.0000 C   0  0  2  0  0  0  0  0  0  0  0  0
    0.7145    1.2375    0.0000 C   0  0  0  0  0  0  0  0  0  0  0  0
    0.7145    2.0625    0.0000 O   0  0  0  0  0  0  0  0  0  0  0  0
    1.4289    0.8250    0.0000 C   0  0  0  0  0  0  0  0  0  0  0  0
    2.1434    1.2375    0.0000 C   0  0  0  0  0  0  0  0  0  0  0  0
    2.8579    0.8250    0.0000 C   0  0  0  0  0  0  0  0  0  0  0  0
    3.5724    1.2375    0.0000 C   0  0  0  0  0  0  0  0  0  0  0  0
    4.2868    0.8250    0.0000 C   0  0  1  0  0  0  0  0  0  0  0  0
    4.2868    0.0000    0.0000 C   0  0  2  0  0  0  0  0  0  0  0  0
    3.5724   -0.4125    0.0000 O   0  0  0  0  0  0  0  0  0  0  0  0
    3.5724   -1.2375    0.0000 C   0  0  0  0  0  0  0  0  0  0  0  0
    4.2868   -1.6500    0.0000 O   0  0  0  0  0  0  0  0  0  0  0  0
    2.8579   -1.6500    0.0000 C   0  0  0  0  0  0  0  0  0  0  0  0
    2.1434   -1.2375    0.0000 C   0  0  0  0  0  0  0  0  0  0  0  0
    2.1434   -0.4125    0.0000 O   0  0  0  0  0  0  0  0  0  0  0  0
    1.4289   -1.6500    0.0000 C   0  0  2  0  0  0  0  0  0  0  0  0
    1.4289   -2.4750    0.0000 C   0  0  0  0  0  0  0  0  0  0  0  0
    5.0013   -0.4125    0.0000 C   0  0  0  0  0  0  0  0  0  0  0  0
    5.0013   -1.2375    0.0000 C   0  0  0  0  0  0  0  0  0  0  0  0
    5.0013    1.2375    0.0000 C   0  0  0  0  0  0  0  0  0  0  0  0
    5.7158    0.8250    0.0000 O   0  0  0  0  0  0  0  0  0  0  0  0
    6.4302    1.2375    0.0000 C   0  0  2  0  0  0  0  0  0  0  0  0
    7.1447    0.8250    0.0000 O   0  0  0  0  0  0  0  0  0  0  0  0
    7.8592    1.2375    0.0000 C   0  0  1  0  0  0  0  0  0  0  0  0
    7.8592    2.0625    0.0000 C   0  0  1  0  0  0  0  0  0  0  0  0
    8.5737    2.4750    0.0000 O   0  0  0  0  0  0  0  0  0  0  0  0
    7.1447    2.4750    0.0000 C   0  0  1  0  0  0  0  0  0  0  0  0
    7.1447    3.3000    0.0000 O   0  0  0  0  0  0  0  0  0  0  0  0
    6.4302    3.7125    0.0000 C   0  0  0  0  0  0  0  0  0  0  0  0
    6.4302    2.0625    0.0000 C   0  0  1  0  0  0  0  0  0  0  0  0
    5.7158    2.4750    0.0000 O   0  0  0  0  0  0  0  0  0  0  0  0
    5.0013    2.0625    0.0000 C   0  0  0  0  0  0  0  0  0  0  0  0
    8.5737    0.8250    0.0000 C   0  0  0  0  0  0  0  0  0  0  0  0
    2.8579    0.0000    0.0000 C   0  0  0  0  0  0  0  0  0  0  0  0
   -0.7145    1.2375    0.0000 C   0  0  0  0  0  0  0  0  0  0  0  0
   -0.0000   -0.8250    0.0000 C   0  0  0  0  0  0  0  0  0  0  0  0
   -0.7145   -0.4125    0.0000 C   0  0  0  0  0  0  0  0  0  0  0  0
   -1.4289   -0.8250    0.0000 N   0  0  0  0  0  0  0  0  0  0  0  0
   -1.4289   -1.6500    0.0000 C   0  0  0  0  0  0  0  0  0  0  0  0
   -2.1434   -2.0625    0.0000 C   0  0  0  0  0  0  0  0  0  0  0  0
   -2.8579   -1.6500    0.0000 C   0  0  0  0  0  0  0  0  0  0  0  0
   -2.8579   -0.8250    0.0000 C   0  0  0  0  0  0  0  0  0  0  0  0
   -2.1434   -0.4125    0.0000 C   0  0  0  0  0  0  0  0  0  0  0  0
   -3.5724   -0.4125    0.0000 C   0  0  0  0  0  0  0  0  0  0  0  0
   -2.1434   -2.8875    0.0000 C   0  0  0  0  0  0  0  0  0  0  0  0
  1  2  1  0  0  0  0
  2  3  1  0  0  0  0
  3  4  1  0  0  0  0
  4  5  1  1  0  0  0
  4  6  1  0  0  0  0
  6  7  1  6  0  0  0
  7  8  1  0  0  0  0
  7  9  1  0  0  0  0
  6 10  1  0  0  0  0
  1 10  1  0  0  0  0
 10 11  1  1  0  0  0
  3 12  1  6  0  0  0
  1 13  1  6  0  0  0
 14 13  1  1  0  0  0
 14 15  1  0  0  0  0
 15 16  1  0  0  0  0
 16 17  1  0  0  0  0
 17 18  1  0  0  0  0
 18 19  2  0  0  0  0
 18 20  1  0  0  0  0
 20 21  2  0  0  0  0
 21 22  1  0  0  0  0
 22 23  2  0  0  0  0
 23 24  1  0  0  0  0
 24 25  1  0  0  0  0
 25 26  1  0  0  0  0
 26 27  1  0  0  0  0
 27 28  2  0  0  0  0
 27 29  1  0  0  0  0
 29 30  1  0  0  0  0
 30 31  1  0  0  0  0
 30 32  1  0  0  0  0
 14 32  1  0  0  0  0
 32 33  1  6  0  0  0
 25 34  1  1  0  0  0
 34 35  1  0  0  0  0
 24 36  1  6  0  0  0
 36 37  1  0  0  0  0
 38 37  1  1  0  0  0
 38 39  1  0  0  0  0
 39 40  1  0  0  0  0
 40 41  1  0  0  0  0
 41 42  1  6  0  0  0
 41 43  1  0  0  0  0
 43 44  1  6  0  0  0
 44 45  1  0  0  0  0
 43 46  1  0  0  0  0
 38 46  1  0  0  0  0
 46 47  1  6  0  0  0
 47 48  1  0  0  0  0
 40 49  1  1  0  0  0
 22 50  1  0  0  0  0
 17 51  1  1  0  0  0
 15 52  1  6  0  0  0
 52 53  1  0  0  0  0
 53 54  1  0  0  0  0
 54 55  1  0  0  0  0
 55 56  1  0  0  0  0
 56 57  1  0  0  0  0
 57 58  1  0  0  0  0
 58 59  1  0  0  0  0
 54 59  1  0  0  0  0
 58 60  1  0  0  0  0
 56 61  1  0  0  0  0
M  END
>  <Name>
Tilmicosin

>  <CAS>
108050-54-0

>  <Formula>
C46H80N2O13

>  <MolWt>
869.13 

>  <Bioactivity>
Tilmicosin is a macrolide antibiotic.

>  <Pathways>
Microbiology & Virology

>  <Target>
Antibiotic

>  <Receptor>
Others

>  <Reference>
1. Yazar E, et al. J Vet Med B Infect Dis Vet Public Health, 2002, 49(4), 209-210.

$$$$
T2204
  Mrv1561503291623562D          

 19 20  0  0  0  0            999 V2000
   -0.0000   -1.6500    0.0000 C   0  0  0  0  0  0  0  0  0  0  0  0
   -0.0000   -2.4750    0.0000 C   0  0  0  0  0  0  0  0  0  0  0  0
   -0.7145   -2.8875    0.0000 C   0  0  0  0  0  0  0  0  0  0  0  0
   -1.4289   -2.4750    0.0000 C   0  0  0  0  0  0  0  0  0  0  0  0
   -1.4289   -1.6500    0.0000 C   0  0  0  0  0  0  0  0  0  0  0  0
   -0.7145   -1.2375    0.0000 C   0  0  0  0  0  0  0  0  0  0  0  0
   -0.7145   -0.4125    0.0000 C   0  0  0  0  0  0  0  0  0  0  0  0
   -1.4289    0.0000    0.0000 C   0  0  0  0  0  0  0  0  0  0  0  0
   -2.1434   -0.4125    0.0000 C   0  0  0  0  0  0  0  0  0  0  0  0
   -2.8579    0.0000    0.0000 N   0  0  0  0  0  0  0  0  0  0  0  0
   -2.8579    0.8250    0.0000 C   0  0  0  0  0  0  0  0  0  0  0  0
   -3.5724    1.2375    0.0000 N   0  0  0  0  0  0  0  0  0  0  0  0
   -2.1434    1.2375    0.0000 N   0  0  0  0  0  0  0  0  0  0  0  0
   -1.4289    0.8250    0.0000 C   0  0  0  0  0  0  0  0  0  0  0  0
   -2.1434   -1.2375    0.0000 N   0  0  0  0  0  0  0  0  0  0  0  0
   -0.7145   -3.7125    0.0000 O   0  0  0  0  0  0  0  0  0  0  0  0
   -0.0000   -4.1250    0.0000 C   0  0  0  0  0  0  0  0  0  0  0  0
    0.7145   -2.8875    0.0000 O   0  0  0  0  0  0  0  0  0  0  0  0
    0.7145   -3.7125    0.0000 C   0  0  0  0  0  0  0  0  0  0  0  0
  1  2  2  0  0  0  0
  2  3  1  0  0  0  0
  3  4  2  0  0  0  0
  4  5  1  0  0  0  0
  5  6  2  0  0  0  0
  1  6  1  0  0  0  0
  6  7  1  0  0  0  0
  7  8  1  0  0  0  0
  8  9  2  0  0  0  0
  9 10  1  0  0  0  0
 10 11  2  0  0  0  0
 11 12  1  0  0  0  0
 11 13  1  0  0  0  0
 13 14  2  0  0  0  0
  8 14  1  0  0  0  0
  9 15  1  0  0  0  0
  3 16  1  0  0  0  0
 16 17  1  0  0  0  0
  2 18  1  0  0  0  0
 18 19  1  0  0  0  0
M  END
>  <Name>
Diaveridine

>  <CAS>
5355-16-8

>  <Formula>
C13H16N4O2

>  <MolWt>
260.29 

>  <Bioactivity>
Diaveridine (DVD) is a popular antibacterial synergist that is widely used in combination with sulfonamide. It has been reported to be genotoxic to mammalian cells, but more studies are required to clarify this.[1]

>  <Pathways>
Microbiology & Virology

>  <Target>
Antibiotic

>  <Receptor>
Others

>  <Reference>
1. Ono T, et al. Environ Toxicol Pharmacol. 1997 Sep;3(4):297-306.

$$$$
104-46-1
  Mrv1561503291623562D          

 11 11  0  0  0  0            999 V2000
    1.4289    0.8250    0.0000 C   0  0  0  0  0  0  0  0  0  0  0  0
    1.4289    0.0000    0.0000 C   0  0  0  0  0  0  0  0  0  0  0  0
    0.7145   -0.4125    0.0000 C   0  0  0  0  0  0  0  0  0  0  0  0
   -0.0000    0.0000    0.0000 C   0  0  0  0  0  0  0  0  0  0  0  0
   -0.0000    0.8250    0.0000 C   0  0  0  0  0  0  0  0  0  0  0  0
    0.7145    1.2375    0.0000 C   0  0  0  0  0  0  0  0  0  0  0  0
    0.7145    2.0625    0.0000 C   0  0  0  0  0  0  0  0  0  0  0  0
    1.4289    2.4750    0.0000 C   0  0  0  0  0  0  0  0  0  0  0  0
    1.4289    3.3000    0.0000 C   0  0  0  0  0  0  0  0  0  0  0  0
    0.7145   -1.2375    0.0000 O   0  0  0  0  0  0  0  0  0  0  0  0
    1.4289   -1.6500    0.0000 C   0  0  0  0  0  0  0  0  0  0  0  0
  1  2  2  0  0  0  0
  2  3  1  0  0  0  0
  3  4  2  0  0  0  0
  4  5  1  0  0  0  0
  5  6  2  0  0  0  0
  1  6  1  0  0  0  0
  6  7  1  0  0  0  0
  7  8  2  0  0  0  0
  8  9  1  0  0  0  0
  3 10  1  0  0  0  0
 10 11  1  0  0  0  0
M  END
>  <Name>
cis-Anethol

>  <CAS>
104-46-1

>  <Formula>
C10H12O

>  <MolWt>
148.20 

>  <Bioactivity>
Extracted from Foeniculum vulgare fruit;Store the product in sealed, cool and dry condition

>  <Pathways>
Others

>  <Target>
Others

>  <Receptor>
Others

>  <Reference>
1. Shimoni E, et al. J Biol Chem. 2002 Apr 5;277(14):11866-72.

$$$$
5908-99-6
  Mrv1561503291623562D          

 48 50  0  0  0  0            999 V2000
   -0.4687    1.4152    0.0000 C   0  0  0  0  0  0  0  0  0  0  0  0
   -1.2756    1.5867    0.0000 N   0  0  0  0  0  0  0  0  0  0  0  0
   -1.0129    2.5053    0.0000 C   0  0  0  0  0  0  0  0  0  0  0  0
   -1.8286    2.3824    0.0000 C   0  0  0  0  0  0  0  0  0  0  0  0
   -2.2411    1.6679    0.0000 C   0  0  0  0  0  0  0  0  0  0  0  0
   -1.9397    0.8999    0.0000 C   0  0  0  0  0  0  0  0  0  0  0  0
   -1.1514    0.6567    0.0000 C   0  0  0  0  0  0  0  0  0  0  0  0
   -0.4697    1.1215    0.0000 C   0  0  0  0  0  0  0  0  0  0  0  0
   -0.4081    1.9442    0.0000 C   0  0  0  0  0  0  0  0  0  0  0  0
    0.2447    0.7090    0.0000 O   0  0  0  0  0  0  0  0  0  0  0  0
    0.2447   -0.1160    0.0000 C   0  0  0  0  0  0  0  0  0  0  0  0
   -0.4697   -0.5285    0.0000 O   0  0  0  0  0  0  0  0  0  0  0  0
    0.9592   -0.5285    0.0000 C   0  0  0  0  0  0  0  0  0  0  0  0
    1.6737   -0.1160    0.0000 C   0  0  0  0  0  0  0  0  0  0  0  0
    2.3881   -0.5285    0.0000 O   0  0  0  0  0  0  0  0  0  0  0  0
    0.9592   -1.3535    0.0000 C   0  0  0  0  0  0  0  0  0  0  0  0
    1.6737   -1.7660    0.0000 C   0  0  0  0  0  0  0  0  0  0  0  0
    1.6737   -2.5910    0.0000 C   0  0  0  0  0  0  0  0  0  0  0  0
    0.9592   -3.0035    0.0000 C   0  0  0  0  0  0  0  0  0  0  0  0
    0.2447   -2.5910    0.0000 C   0  0  0  0  0  0  0  0  0  0  0  0
    0.2447   -1.7660    0.0000 C   0  0  0  0  0  0  0  0  0  0  0  0
    6.5178    1.4152    0.0000 C   0  0  0  0  0  0  0  0  0  0  0  0
    5.7108    1.5867    0.0000 N   0  0  0  0  0  0  0  0  0  0  0  0
    5.9736    2.5053    0.0000 C   0  0  0  0  0  0  0  0  0  0  0  0
    5.1578    2.3824    0.0000 C   0  0  0  0  0  0  0  0  0  0  0  0
    4.7453    1.6679    0.0000 C   0  0  0  0  0  0  0  0  0  0  0  0
    5.0467    0.8999    0.0000 C   0  0  0  0  0  0  0  0  0  0  0  0
    5.8350    0.6567    0.0000 C   0  0  0  0  0  0  0  0  0  0  0  0
    6.5167    1.1215    0.0000 C   0  0  0  0  0  0  0  0  0  0  0  0
    6.5783    1.9442    0.0000 C   0  0  0  0  0  0  0  0  0  0  0  0
    7.2312    0.7090    0.0000 O   0  0  0  0  0  0  0  0  0  0  0  0
    7.2312   -0.1160    0.0000 C   0  0  0  0  0  0  0  0  0  0  0  0
    6.5167   -0.5285    0.0000 O   0  0  0  0  0  0  0  0  0  0  0  0
    7.9456   -0.5285    0.0000 C   0  0  0  0  0  0  0  0  0  0  0  0
    8.6601   -0.1160    0.0000 C   0  0  0  0  0  0  0  0  0  0  0  0
    9.3746   -0.5285    0.0000 O   0  0  0  0  0  0  0  0  0  0  0  0
    7.9456   -1.3535    0.0000 C   0  0  0  0  0  0  0  0  0  0  0  0
    8.6601   -1.7660    0.0000 C   0  0  0  0  0  0  0  0  0  0  0  0
    8.6601   -2.5910    0.0000 C   0  0  0  0  0  0  0  0  0  0  0  0
    7.9456   -3.0035    0.0000 C   0  0  0  0  0  0  0  0  0  0  0  0
    7.2312   -2.5910    0.0000 C   0  0  0  0  0  0  0  0  0  0  0  0
    7.2312   -1.7660    0.0000 C   0  0  0  0  0  0  0  0  0  0  0  0
    0.0000   -5.4785    0.0000 O   0  0  0  0  0  0  0  0  0  0  0  0
    2.7107   -6.3035    0.0000 O   0  0  0  0  0  0  0  0  0  0  0  0
    2.7107   -5.4785    0.0000 S   0  0  0  0  0  0  0  0  0  0  0  0
    2.7107   -4.6535    0.0000 O   0  0  0  0  0  0  0  0  0  0  0  0
    3.5357   -5.4785    0.0000 O   0  0  0  0  0  0  0  0  0  0  0  0
    1.8857   -5.4785    0.0000 O   0  0  0  0  0  0  0  0  0  0  0  0
  1  2  1  0  0  0  0
  2  3  1  0  0  0  0
  3  4  1  0  0  0  0
  4  5  1  0  0  0  0
  5  6  1  0  0  0  0
  2  6  1  0  0  0  0
  6  7  1  0  0  0  0
  7  8  1  0  0  0  0
  8  9  1  0  0  0  0
  3  9  1  0  0  0  0
  8 10  1  0  0  0  0
 10 11  1  0  0  0  0
 11 12  2  0  0  0  0
 11 13  1  0  0  0  0
 13 14  1  0  0  0  0
 14 15  1  0  0  0  0
 13 16  1  0  0  0  0
 16 17  2  0  0  0  0
 17 18  1  0  0  0  0
 18 19  2  0  0  0  0
 19 20  1  0  0  0  0
 20 21  2  0  0  0  0
 16 21  1  0  0  0  0
 22 23  1  0  0  0  0
 23 24  1  0  0  0  0
 24 25  1  0  0  0  0
 25 26  1  0  0  0  0
 26 27  1  0  0  0  0
 23 27  1  0  0  0  0
 27 28  1  0  0  0  0
 28 29  1  0  0  0  0
 29 30  1  0  0  0  0
 24 30  1  0  0  0  0
 29 31  1  0  0  0  0
 31 32  1  0  0  0  0
 32 33  2  0  0  0  0
 32 34  1  0  0  0  0
 34 35  1  0  0  0  0
 35 36  1  0  0  0  0
 34 37  1  0  0  0  0
 37 38  2  0  0  0  0
 38 39  1  0  0  0  0
 39 40  2  0  0  0  0
 40 41  1  0  0  0  0
 41 42  2  0  0  0  0
 37 42  1  0  0  0  0
 44 45  1  0  0  0  0
 45 46  2  0  0  0  0
 45 47  2  0  0  0  0
 45 48  1  0  0  0  0
M  END
>  <Name>
Atropine sulfate monohydrate

>  <CAS>
5908-99-6

>  <Formula>
C34H46N2O6·H2SO4·H2O

>  <MolWt>
694.83 

>  <Bioactivity>
Atropine is an antimuscarinic agent and has shown the pharmacological effects because of binding to muscarinic acetylcholine receptors. Atropine, the orthosteric antagonist, has been reported to compete with [3H]-NMS for all muscarinic subtypes with a potency consistent with the high affinities at the mAChR subtypes

>  <Pathways>
Neuroscience

>  <Target>
AChR antagonist

>  <Receptor>
Muscarinic AChR

>  <Reference>
1. Huang XP, et al. J Pharmacol Exp Ther. 1998 Sep; 286(3):1129-39. 

$$$$
298-57-7
  Mrv1561503291623562D          

 28 31  0  0  0  0            999 V2000
   -1.4289   -1.6500    0.0000 C   0  0  0  0  0  0  0  0  0  0  0  0
   -0.7145   -1.2375    0.0000 C   0  0  0  0  0  0  0  0  0  0  0  0
   -0.7145   -0.4125    0.0000 C   0  0  0  0  0  0  0  0  0  0  0  0
   -0.0000   -0.0000    0.0000 N   0  0  0  0  0  0  0  0  0  0  0  0
    0.0000    0.8250    0.0000 C   0  0  0  0  0  0  0  0  0  0  0  0
    0.7145    1.2375    0.0000 C   0  0  0  0  0  0  0  0  0  0  0  0
    1.4289    0.8250    0.0000 N   0  0  0  0  0  0  0  0  0  0  0  0
    2.1434    1.2375    0.0000 C   0  0  0  0  0  0  0  0  0  0  0  0
    2.8579    0.8250    0.0000 C   0  0  0  0  0  0  0  0  0  0  0  0
    3.5724    1.2375    0.0000 C   0  0  0  0  0  0  0  0  0  0  0  0
    4.2868    0.8250    0.0000 C   0  0  0  0  0  0  0  0  0  0  0  0
    5.0013    1.2375    0.0000 C   0  0  0  0  0  0  0  0  0  0  0  0
    5.7158    0.8250    0.0000 C   0  0  0  0  0  0  0  0  0  0  0  0
    5.7158   -0.0000    0.0000 C   0  0  0  0  0  0  0  0  0  0  0  0
    5.0013   -0.4125    0.0000 C   0  0  0  0  0  0  0  0  0  0  0  0
    4.2868   -0.0000    0.0000 C   0  0  0  0  0  0  0  0  0  0  0  0
    1.4289   -0.0000    0.0000 C   0  0  0  0  0  0  0  0  0  0  0  0
    0.7145   -0.4125    0.0000 C   0  0  0  0  0  0  0  0  0  0  0  0
   -1.4289    0.0000    0.0000 C   0  0  0  0  0  0  0  0  0  0  0  0
   -2.1434   -0.4125    0.0000 C   0  0  0  0  0  0  0  0  0  0  0  0
   -2.8579    0.0000    0.0000 C   0  0  0  0  0  0  0  0  0  0  0  0
   -2.8579    0.8250    0.0000 C   0  0  0  0  0  0  0  0  0  0  0  0
   -2.1434    1.2375    0.0000 C   0  0  0  0  0  0  0  0  0  0  0  0
   -1.4289    0.8250    0.0000 C   0  0  0  0  0  0  0  0  0  0  0  0
   -0.0000   -1.6500    0.0000 C   0  0  0  0  0  0  0  0  0  0  0  0
   -0.0000   -2.4750    0.0000 C   0  0  0  0  0  0  0  0  0  0  0  0
   -0.7145   -2.8875    0.0000 C   0  0  0  0  0  0  0  0  0  0  0  0
   -1.4289   -2.4750    0.0000 C   0  0  0  0  0  0  0  0  0  0  0  0
  1  2  2  0  0  0  0
  2  3  1  0  0  0  0
  3  4  1  0  0  0  0
  4  5  1  0  0  0  0
  5  6  1  0  0  0  0
  6  7  1  0  0  0  0
  7  8  1  0  0  0  0
  8  9  1  0  0  0  0
  9 10  2  0  0  0  0
 10 11  1  0  0  0  0
 11 12  2  0  0  0  0
 12 13  1  0  0  0  0
 13 14  2  0  0  0  0
 14 15  1  0  0  0  0
 15 16  2  0  0  0  0
 11 16  1  0  0  0  0
  7 17  1  0  0  0  0
 17 18  1  0  0  0  0
  4 18  1  0  0  0  0
  3 19  1  0  0  0  0
 19 20  2  0  0  0  0
 20 21  1  0  0  0  0
 21 22  2  0  0  0  0
 22 23  1  0  0  0  0
 23 24  2  0  0  0  0
 19 24  1  0  0  0  0
  2 25  1  0  0  0  0
 25 26  2  0  0  0  0
 26 27  1  0  0  0  0
 27 28  2  0  0  0  0
  1 28  1  0  0  0  0
M  END
>  <Name>
Stugeron

>  <CAS>
298-57-7

>  <Formula>
C26H28N2

>  <MolWt>
368.51 

>  <Bioactivity>
Cinnarizine is a drug derivative of piperazine, and characterized as an antihistamine and a calcium channel blocker, it is also known to promote cerebral blood flow, and so is used to treat cerebral apoplexy, post-trauma cerebral symptoms, and cerebral arteriosclerosis.

>  <Pathways>
Membrane Transporter/Ion Channel

>  <Target>
Calcium Channel inhibitor;Histamine Receptor antagonist

>  <Receptor>
Calcium Channel;Histamine H1 receptor

>  <Reference>
1. Terland O, et al. Neuropharmacology. 1999 Jun;38(6):879-82.

$$$$
10246-75-0
  Mrv1561503291623562D          

 55 60  0  0  0  0            999 V2000
   -0.7805   -2.0571    0.0000 C   0  0  0  0  0  0  0  0  0  0  0  0
   -0.7805   -2.8821    0.0000 C   0  0  0  0  0  0  0  0  0  0  0  0
   -0.0660   -3.2946    0.0000 C   0  0  0  0  0  0  0  0  0  0  0  0
    0.6485   -2.8821    0.0000 C   0  0  0  0  0  0  0  0  0  0  0  0
    0.6485   -2.0571    0.0000 C   0  0  0  0  0  0  0  0  0  0  0  0
    1.3629   -1.6446    0.0000 C   0  0  0  0  0  0  0  0  0  0  0  0
    1.3629   -0.8196    0.0000 C   0  0  0  0  0  0  0  0  0  0  0  0
    0.6485   -0.4071    0.0000 C   0  0  0  0  0  0  0  0  0  0  0  0
   -0.0660   -0.8196    0.0000 C   0  0  0  0  0  0  0  0  0  0  0  0
   -0.0660   -1.6446    0.0000 C   0  0  0  0  0  0  0  0  0  0  0  0
   -0.7805   -0.4071    0.0000 C   0  0  0  0  0  0  0  0  0  0  0  0
   -0.7805    0.4179    0.0000 C   0  0  0  0  0  0  0  0  0  0  0  0
   -0.0660    0.8304    0.0000 C   0  0  0  0  0  0  0  0  0  0  0  0
   -0.0660    1.6554    0.0000 C   0  0  0  0  0  0  0  0  0  0  0  0
   -0.7805    2.0679    0.0000 C   0  0  0  0  0  0  0  0  0  0  0  0
   -1.4949    1.6554    0.0000 C   0  0  0  0  0  0  0  0  0  0  0  0
   -1.4949    0.8304    0.0000 C   0  0  0  0  0  0  0  0  0  0  0  0
   -2.2094    0.4179    0.0000 O   0  0  0  0  0  0  0  0  0  0  0  0
   -2.2094    2.0679    0.0000 C   0  0  0  0  0  0  0  0  0  0  0  0
   -2.9239    1.6554    0.0000 O   0  0  0  0  0  0  0  0  0  0  0  0
   -2.2094    2.8929    0.0000 O   0  0  0  0  0  0  0  0  0  0  0  0
    0.6485    2.0679    0.0000 C   0  0  0  0  0  0  0  0  0  0  0  0
    1.3629    1.6554    0.0000 C   0  0  0  0  0  0  0  0  0  0  0  0
    1.3629    0.8304    0.0000 C   0  0  0  0  0  0  0  0  0  0  0  0
    0.6485    0.4179    0.0000 C   0  0  0  0  0  0  0  0  0  0  0  0
    1.1334    0.2604    0.0000 O   0  0  0  0  0  0  0  0  0  0  0  0
    2.0774   -0.4071    0.0000 C   0  0  0  0  0  0  0  0  0  0  0  0
    2.0774    0.4179    0.0000 O   0  0  0  0  0  0  0  0  0  0  0  0
    2.7919   -0.8196    0.0000 O   0  0  0  0  0  0  0  0  0  0  0  0
    6.8210    0.8409    0.0000 C   0  0  0  0  0  0  0  0  0  0  0  0
    6.8210    0.0159    0.0000 C   0  0  0  0  0  0  0  0  0  0  0  0
    7.5355   -0.3966    0.0000 C   0  0  0  0  0  0  0  0  0  0  0  0
    8.2500    0.0159    0.0000 N   0  0  0  0  0  0  0  0  0  0  0  0
    8.2500    0.8409    0.0000 C   0  0  0  0  0  0  0  0  0  0  0  0
    8.9644    1.2534    0.0000 C   0  0  0  0  0  0  0  0  0  0  0  0
    9.6789    0.8409    0.0000 N   0  0  0  0  0  0  0  0  0  0  0  0
   10.3934    1.2534    0.0000 C   0  0  0  0  0  0  0  0  0  0  0  0
   11.1078    0.8409    0.0000 C   0  0  0  0  0  0  0  0  0  0  0  0
   11.8223    1.2534    0.0000 O   0  0  0  0  0  0  0  0  0  0  0  0
   12.5368    0.8409    0.0000 C   0  0  0  0  0  0  0  0  0  0  0  0
   13.2513    1.2534    0.0000 C   0  0  0  0  0  0  0  0  0  0  0  0
   13.9657    0.8409    0.0000 O   0  0  0  0  0  0  0  0  0  0  0  0
    9.6789    0.0159    0.0000 C   0  0  0  0  0  0  0  0  0  0  0  0
    8.9644   -0.3966    0.0000 C   0  0  0  0  0  0  0  0  0  0  0  0
    7.5355   -1.2216    0.0000 C   0  0  0  0  0  0  0  0  0  0  0  0
    8.2500   -1.6341    0.0000 C   0  0  0  0  0  0  0  0  0  0  0  0
    8.2500   -2.4591    0.0000 C   0  0  0  0  0  0  0  0  0  0  0  0
    7.5355   -2.8716    0.0000 C   0  0  0  0  0  0  0  0  0  0  0  0
    6.8210   -2.4591    0.0000 C   0  0  0  0  0  0  0  0  0  0  0  0
    6.8210   -1.6341    0.0000 C   0  0  0  0  0  0  0  0  0  0  0  0
    6.1065   -0.3966    0.0000 C   0  0  0  0  0  0  0  0  0  0  0  0
    5.3921    0.0159    0.0000 C   0  0  0  0  0  0  0  0  0  0  0  0
    5.3921    0.8409    0.0000 C   0  0  0  0  0  0  0  0  0  0  0  0
    6.1065    1.2534    0.0000 C   0  0  0  0  0  0  0  0  0  0  0  0
    4.6776    1.2534    0.0000 Cl  0  0  0  0  0  0  0  0  0  0  0  0
  1  2  2  0  0  0  0
  2  3  1  0  0  0  0
  3  4  2  0  0  0  0
  4  5  1  0  0  0  0
  5  6  2  0  0  0  0
  6  7  1  0  0  0  0
  7  8  2  0  0  0  0
  8  9  1  0  0  0  0
  9 10  2  0  0  0  0
  1 10  1  0  0  0  0
  5 10  1  0  0  0  0
  9 11  1  0  0  0  0
 11 12  1  0  0  0  0
 12 13  2  0  0  0  0
 13 14  1  0  0  0  0
 14 15  2  0  0  0  0
 15 16  1  0  0  0  0
 16 17  2  0  0  0  0
 12 17  1  0  0  0  0
 17 18  1  0  0  0  0
 16 19  1  0  0  0  0
 19 20  1  0  0  0  0
 19 21  2  0  0  0  0
 14 22  1  0  0  0  0
 22 23  2  0  0  0  0
 23 24  1  0  0  0  0
 24 25  2  0  0  0  0
 13 25  1  0  0  0  0
  8 26  1  0  0  0  0
  7 27  1  0  0  0  0
 27 28  1  0  0  0  0
 27 29  2  0  0  0  0
 30 31  2  0  0  0  0
 31 32  1  0  0  0  0
 32 33  1  0  0  0  0
 33 34  1  0  0  0  0
 34 35  1  0  0  0  0
 35 36  1  0  0  0  0
 36 37  1  0  0  0  0
 37 38  1  0  0  0  0
 38 39  1  0  0  0  0
 39 40  1  0  0  0  0
 40 41  1  0  0  0  0
 41 42  1  0  0  0  0
 36 43  1  0  0  0  0
 43 44  1  0  0  0  0
 33 44  1  0  0  0  0
 32 45  1  0  0  0  0
 45 46  2  0  0  0  0
 46 47  1  0  0  0  0
 47 48  2  0  0  0  0
 48 49  1  0  0  0  0
 49 50  2  0  0  0  0
 45 50  1  0  0  0  0
 31 51  1  0  0  0  0
 51 52  2  0  0  0  0
 52 53  1  0  0  0  0
 53 54  2  0  0  0  0
 30 54  1  0  0  0  0
 53 55  1  0  0  0  0
M  END
>  <Name>
Hydroxyzine Pamoate

>  <CAS>
10246-75-0

>  <Formula>
C44H43ClN2O8

>  <MolWt>
763.27 

>  <Bioactivity>
A histamine H1 receptor antagonist that is effective in the treatment of chronic urticaria, dermatitis, and histamine-mediated pruritus. Unlike its major metabolite cetirizine, it does cause drowsiness. It is also effective as an antiemetic, for relief of anxiety and tension, and as a sedative. 

>  <Pathways>
Neuroscience

>  <Target>
Histamine Receptor antagonist

>  <Receptor>
Histamine H1 receptor

>  <Reference>
1. Spahr L, et al. Am J Gastroenterol. 2007 Apr;102(4):744-53. 

$$$$
132-18-3
  Mrv1561503291623562D          

 23 23  0  0  0  0            999 V2000
    0.4125    0.0000    0.0000 H   0  3  0  0  0  0  0  0  0  0  0  0
    3.7272   -0.8446    0.0000 C   0  0  0  0  0  0  0  0  0  0  0  0
    4.4416   -0.4321    0.0000 C   0  0  0  0  0  0  0  0  0  0  0  0
    4.4416    0.3929    0.0000 C   0  0  0  0  0  0  0  0  0  0  0  0
    5.1561    0.8054    0.0000 O   0  0  0  0  0  0  0  0  0  0  0  0
    5.8706    0.3929    0.0000 C   0  0  0  0  0  0  0  0  0  0  0  0
    6.5850    0.8054    0.0000 C   0  0  0  0  0  0  0  0  0  0  0  0
    7.2995    0.3929    0.0000 C   0  0  0  0  0  0  0  0  0  0  0  0
    7.2995   -0.4321    0.0000 N   0  0  0  0  0  0  0  0  0  0  0  0
    6.5850   -0.8446    0.0000 C   0  0  0  0  0  0  0  0  0  0  0  0
    5.8706   -0.4321    0.0000 C   0  0  0  0  0  0  0  0  0  0  0  0
    8.0140   -0.8446    0.0000 C   0  0  0  0  0  0  0  0  0  0  0  0
    3.7272    0.8054    0.0000 C   0  0  0  0  0  0  0  0  0  0  0  0
    3.0127    0.3929    0.0000 C   0  0  0  0  0  0  0  0  0  0  0  0
    2.2982    0.8054    0.0000 C   0  0  0  0  0  0  0  0  0  0  0  0
    2.2982    1.6304    0.0000 C   0  0  0  0  0  0  0  0  0  0  0  0
    3.0127    2.0429    0.0000 C   0  0  0  0  0  0  0  0  0  0  0  0
    3.7272    1.6304    0.0000 C   0  0  0  0  0  0  0  0  0  0  0  0
    5.1561   -0.8446    0.0000 C   0  0  0  0  0  0  0  0  0  0  0  0
    5.1561   -1.6696    0.0000 C   0  0  0  0  0  0  0  0  0  0  0  0
    4.4416   -2.0821    0.0000 C   0  0  0  0  0  0  0  0  0  0  0  0
    3.7272   -1.6696    0.0000 C   0  0  0  0  0  0  0  0  0  0  0  0
   -0.4125    0.0000    0.0000 Cl  0  5  0  0  0  0  0  0  0  0  0  0
  2  3  2  0  0  0  0
  3  4  1  0  0  0  0
  4  5  1  0  0  0  0
  5  6  1  0  0  0  0
  6  7  1  0  0  0  0
  7  8  1  0  0  0  0
  8  9  1  0  0  0  0
  9 10  1  0  0  0  0
 10 11  1  0  0  0  0
  6 11  1  0  0  0  0
  9 12  1  0  0  0  0
  4 13  1  0  0  0  0
 13 14  2  0  0  0  0
 14 15  1  0  0  0  0
 15 16  2  0  0  0  0
 16 17  1  0  0  0  0
 17 18  2  0  0  0  0
 13 18  1  0  0  0  0
  3 19  1  0  0  0  0
 19 20  2  0  0  0  0
 20 21  1  0  0  0  0
 21 22  2  0  0  0  0
  2 22  1  0  0  0  0
M  CHG  2   1   1  23  -1
M  END
>  <Name>
Diphenylpyraline HCl

>  <CAS>
132-18-3

>  <Formula>
C19H23NO.HCl

>  <MolWt>
317.85 

>  <Bioactivity>
Diphenylpyraline is a first-generation antihistamine with anticholinergic effects of the diphenylpiperidine class.

>  <Pathways>
Neuroscience

>  <Target>
Histamine Receptor antagonist

>  <Receptor>
Histamine H1 receptor

>  <Reference>
1. Lapa GB, et al. Eur J Pharmacol. 2005, 506(3):237-40. 

$$$$
64-65-3
  Mrv1561503291623562D          

 11 11  0  0  0  0            999 V2000
    0.1842    1.8695    0.0000 C   0  0  0  0  0  0  0  0  0  0  0  0
    0.7145    1.2375    0.0000 C   0  0  0  0  0  0  0  0  0  0  0  0
    1.4289    0.8250    0.0000 C   0  0  0  0  0  0  0  0  0  0  0  0
    1.4289    0.0000    0.0000 C   0  0  0  0  0  0  0  0  0  0  0  0
    0.7145   -0.4125    0.0000 N   0  0  0  0  0  0  0  0  0  0  0  0
    0.0000   -0.0000    0.0000 C   0  0  0  0  0  0  0  0  0  0  0  0
    0.0000    0.8250    0.0000 C   0  0  0  0  0  0  0  0  0  0  0  0
   -0.7145   -0.4125    0.0000 O   0  0  0  0  0  0  0  0  0  0  0  0
    2.1434   -0.4125    0.0000 O   0  0  0  0  0  0  0  0  0  0  0  0
    1.2448    1.8695    0.0000 C   0  0  0  0  0  0  0  0  0  0  0  0
   -0.6283    1.7262    0.0000 C   0  0  0  0  0  0  0  0  0  0  0  0
  1  2  1  0  0  0  0
  2  3  1  0  0  0  0
  3  4  1  0  0  0  0
  4  5  1  0  0  0  0
  5  6  1  0  0  0  0
  6  7  1  0  0  0  0
  2  7  1  0  0  0  0
  6  8  2  0  0  0  0
  4  9  2  0  0  0  0
  2 10  1  0  0  0  0
  1 11  1  0  0  0  0
M  END
>  <Name>
Agipnon

>  <CAS>
64-65-3

>  <Formula>
C8H13NO2

>  <MolWt>
155.19 

>  <Bioactivity>
A CNS stimulant that is used to induce convulsions in experimental animals. It has also been used as a respiratory stimulant and in the treatment of barbiturate overdose.


>  <Pathways>
Neuroscience

>  <Target>
GABAR antagonist

>  <Receptor>
GABAR

>  <Reference>
1. Mistry DK, et al. Exp Physiol, 1990, 75(2),199-209.

$$$$
T0895
  Mrv1561503291623562D          

 37 36  0  0  1  0            999 V2000
   -0.8406    0.4724    0.0000 C   0  0  0  0  0  0  0  0  0  0  0  0
   -0.1261    0.8849    0.0000 C   0  0  0  0  0  0  0  0  0  0  0  0
   -0.1261    1.7099    0.0000 O   0  0  0  0  0  0  0  0  0  0  0  0
    0.5884    0.4724    0.0000 C   0  0  0  0  0  0  0  0  0  0  0  0
    1.3029    0.8849    0.0000 C   0  0  0  0  0  0  0  0  0  0  0  0
    0.7726    1.5169    0.0000 O   0  0  0  0  0  0  0  0  0  0  0  0
    2.0173    0.4724    0.0000 C   0  0  0  0  0  0  0  0  0  0  0  0
    2.0173   -0.3526    0.0000 C   0  0  0  0  0  0  0  0  0  0  0  0
    1.3029   -0.7651    0.0000 C   0  0  0  0  0  0  0  0  0  0  0  0
    1.3029   -1.5901    0.0000 O   0  0  0  0  0  0  0  0  0  0  0  0
    0.5884   -0.3526    0.0000 C   0  5  0  0  0  0  0  0  0  0  0  0
   -0.1261   -0.7651    0.0000 C   0  0  0  0  0  0  0  0  0  0  0  0
   -0.1261   -1.5901    0.0000 O   0  0  0  0  0  0  0  0  0  0  0  0
   -0.8406   -0.3526    0.0000 C   0  0  0  0  0  0  0  0  0  0  0  0
   -0.8406   -1.1776    0.0000 O   0  0  0  0  0  0  0  0  0  0  0  0
   -1.5550   -0.7651    0.0000 C   0  0  0  0  0  0  0  0  0  0  0  0
   -1.5550   -1.5901    0.0000 O   0  0  0  0  0  0  0  0  0  0  0  0
   -2.2695   -0.3526    0.0000 C   0  0  0  0  0  0  0  0  0  0  0  0
   -2.2695    0.4724    0.0000 C   0  0  0  0  0  0  0  0  0  0  0  0
   -2.9840    0.8849    0.0000 O   0  0  0  0  0  0  0  0  0  0  0  0
   -1.5550    0.8849    0.0000 C   0  0  0  0  0  0  0  0  0  0  0  0
   -1.5550    1.7099    0.0000 N   0  0  0  0  0  0  0  0  0  0  0  0
   -0.8406    2.1224    0.0000 C   0  0  0  0  0  0  0  0  0  0  0  0
   -2.2695    2.1224    0.0000 C   0  0  0  0  0  0  0  0  0  0  0  0
   -2.9840   -0.7651    0.0000 C   0  0  0  0  0  0  0  0  0  0  0  0
   -2.9840   -1.5901    0.0000 O   0  0  0  0  0  0  0  0  0  0  0  0
   -3.6984   -0.3526    0.0000 N   0  0  0  0  0  0  0  0  0  0  0  0
    2.7318   -0.7651    0.0000 C   0  0  0  0  0  0  0  0  0  0  0  0
    3.4463   -0.3526    0.0000 C   0  0  0  0  0  0  0  0  0  0  0  0
    3.4463    0.4724    0.0000 C   0  0  0  0  0  0  0  0  0  0  0  0
    2.7318    0.8849    0.0000 C   0  0  0  0  0  0  0  0  0  0  0  0
    2.7318   -1.5901    0.0000 O   0  5  0  0  0  0  0  0  0  0  0  0
    1.8332    1.5169    0.0000 C   0  0  0  0  0  0  0  0  0  0  0  0
    2.7318   -2.4151    0.0000 Na  0  3  0  0  0  0  0  0  0  0  0  0
    5.8034    0.0000    0.0000 Na  0  3  0  0  0  0  0  0  0  0  0  0
    0.0000   -4.0651    0.0000 O   0  0  0  0  0  0  0  0  0  0  0  0
    2.3571   -4.0651    0.0000 O   0  0  0  0  0  0  0  0  0  0  0  0
  1  2  1  0  0  0  0
  2  3  1  0  0  0  0
  2  4  1  0  0  0  0
  4  5  1  0  0  0  0
  5  6  1  0  0  0  0
  5  7  1  0  0  0  0
  7  8  2  0  0  0  0
  8  9  1  0  0  0  0
  9 10  2  0  0  0  0
  9 11  1  0  0  0  0
  4 11  1  0  0  0  0
 11 12  1  0  0  0  0
 12 13  2  0  0  0  0
 12 14  1  0  0  0  0
  1 14  1  0  0  0  0
 14 15  1  0  0  0  0
 14 16  1  0  0  0  0
 16 17  2  0  0  0  0
 16 18  1  0  0  0  0
 18 19  1  0  0  0  0
 19 20  2  0  0  0  0
 19 21  1  0  0  0  0
  1 21  1  0  0  0  0
 21 22  1  0  0  0  0
 22 23  1  0  0  0  0
 22 24  1  0  0  0  0
 18 25  2  0  0  0  0
 25 26  1  0  0  0  0
 25 27  1  0  0  0  0
  8 28  1  0  0  0  0
 28 29  2  0  0  0  0
 29 30  1  0  0  0  0
 30 31  2  0  0  0  0
  7 31  1  0  0  0  0
 28 32  1  0  0  0  0
  5 33  1  0  0  0  0
M  CHG  4  11  -1  32  -1  34   1  35   1
M  END
>  <Name>
Oxytetracycline (Terramycin)

>  <CAS>
79-57-2

>  <Formula>
C22H24N2O9

>  <MolWt>
460.44 

>  <Bioactivity>
Oxytetracycline (Terramycin) was the second of the broad-spectrum tetracycline group of antibiotics to be discovered.

>  <Pathways>
Microbiology & Virology

>  <Target>
Antibiotic

>  <Receptor>
30S ribosomal protein, 16S ribosomal protein

>  <Reference>
1. Babu E, et al. Jpn J Pharmacol. 2002 Jan;88(1):69-76. 

$$$$
T2843
  Mrv1561503291623562D          

 20 22  0  0  0  0            999 V2000
    3.5724   -0.4125    0.0000 C   0  0  0  0  0  0  0  0  0  0  0  0
    2.8579    0.0000    0.0000 C   0  0  0  0  0  0  0  0  0  0  0  0
    2.8579    0.8250    0.0000 C   0  0  0  0  0  0  0  0  0  0  0  0
    3.5724    1.2375    0.0000 C   0  0  0  0  0  0  0  0  0  0  0  0
    4.2868    0.8250    0.0000 C   0  0  0  0  0  0  0  0  0  0  0  0
    4.2868    0.0000    0.0000 C   0  0  0  0  0  0  0  0  0  0  0  0
    5.0013   -0.4125    0.0000 C   0  0  0  0  0  0  0  0  0  0  0  0
    5.7158   -0.0000    0.0000 O   0  0  0  0  0  0  0  0  0  0  0  0
    3.5724    2.0625    0.0000 O   0  0  0  0  0  0  0  0  0  0  0  0
    2.1434    1.2375    0.0000 C   0  0  0  0  0  0  0  0  0  0  0  0
    1.4289    0.8250    0.0000 C   0  0  0  0  0  0  0  0  0  0  0  0
    1.4289   -0.0000    0.0000 C   0  0  0  0  0  0  0  0  0  0  0  0
    2.1434   -0.4125    0.0000 C   0  0  0  0  0  0  0  0  0  0  0  0
    2.1434   -1.2375    0.0000 O   0  0  0  0  0  0  0  0  0  0  0  0
    0.7145   -0.4125    0.0000 C   0  0  0  0  0  0  0  0  0  0  0  0
   -0.0000    0.0000    0.0000 C   0  0  0  0  0  0  0  0  0  0  0  0
   -0.0000    0.8250    0.0000 C   0  0  0  0  0  0  0  0  0  0  0  0
    0.7145    1.2375    0.0000 C   0  0  0  0  0  0  0  0  0  0  0  0
    0.7145    2.0625    0.0000 O   0  0  0  0  0  0  0  0  0  0  0  0
    2.1434    2.0625    0.0000 O   0  0  0  0  0  0  0  0  0  0  0  0
  1  2  2  0  0  0  0
  2  3  1  0  0  0  0
  3  4  2  0  0  0  0
  4  5  1  0  0  0  0
  5  6  2  0  0  0  0
  1  6  1  0  0  0  0
  6  7  1  0  0  0  0
  7  8  1  0  0  0  0
  4  9  1  0  0  0  0
  3 10  1  0  0  0  0
 10 11  1  0  0  0  0
 11 12  2  0  0  0  0
 12 13  1  0  0  0  0
  2 13  1  0  0  0  0
 13 14  2  0  0  0  0
 12 15  1  0  0  0  0
 15 16  2  0  0  0  0
 16 17  1  0  0  0  0
 17 18  2  0  0  0  0
 11 18  1  0  0  0  0
 18 19  1  0  0  0  0
 10 20  2  0  0  0  0
M  END
>  <Name>
Aloe-emodin

>  <CAS>
481-72-1

>  <Formula>
C15H10O5

>  <MolWt>
270.24 

>  <Bioactivity>
Aloe-emodin is an interferon-inducing agent with IC50 of about 1 ?g/mL for JEV and of about 0.33 ?g/mL for EV71.

>  <Pathways>
Microbiology & Virology

>  <Target>
Antiviral

>  <Receptor>
HSV1/HSV2

>  <Reference>
1. Li SW, et al. Eur J Pharmacol. 2014 Sep 5;738:125-32.

$$$$
29883-15-6
  Mrv1561503291623562D          

 32 34  0  0  1  0            999 V2000
    1.4289   -2.4750    0.0000 C   0  0  2  0  0  0  0  0  0  0  0  0
    2.1434   -2.8875    0.0000 O   0  0  0  0  0  0  0  0  0  0  0  0
    2.1434   -3.7125    0.0000 C   0  0  1  0  0  0  0  0  0  0  0  0
    1.4289   -4.1250    0.0000 C   0  0  1  0  0  0  0  0  0  0  0  0
    1.4289   -4.9500    0.0000 O   0  0  0  0  0  0  0  0  0  0  0  0
    0.7145   -3.7125    0.0000 C   0  0  1  0  0  0  0  0  0  0  0  0
    0.7145   -2.8875    0.0000 C   0  0  1  0  0  0  0  0  0  0  0  0
   -0.0000   -2.4750    0.0000 O   0  0  0  0  0  0  0  0  0  0  0  0
   -0.0000   -4.1250    0.0000 O   0  0  0  0  0  0  0  0  0  0  0  0
    2.8579   -4.1250    0.0000 C   0  0  0  0  0  0  0  0  0  0  0  0
    2.8579   -4.9500    0.0000 O   0  0  0  0  0  0  0  0  0  0  0  0
    3.5724   -5.3625    0.0000 C   0  0  2  0  0  0  0  0  0  0  0  0
    4.2868   -4.9500    0.0000 O   0  0  0  0  0  0  0  0  0  0  0  0
    5.0013   -5.3625    0.0000 C   0  0  1  0  0  0  0  0  0  0  0  0
    5.0013   -6.1875    0.0000 C   0  0  1  0  0  0  0  0  0  0  0  0
    5.7158   -6.6000    0.0000 O   0  0  0  0  0  0  0  0  0  0  0  0
    4.2868   -6.6000    0.0000 C   0  0  1  0  0  0  0  0  0  0  0  0
    3.5724   -6.1875    0.0000 C   0  0  1  0  0  0  0  0  0  0  0  0
    2.8579   -6.6000    0.0000 O   0  0  0  0  0  0  0  0  0  0  0  0
    4.2868   -7.4250    0.0000 O   0  0  0  0  0  0  0  0  0  0  0  0
    5.7158   -4.9500    0.0000 C   0  0  0  0  0  0  0  0  0  0  0  0
    6.4302   -5.3625    0.0000 O   0  0  0  0  0  0  0  0  0  0  0  0
    1.4289   -1.6500    0.0000 O   0  0  0  0  0  0  0  0  0  0  0  0
    0.7145   -1.2375    0.0000 C   0  0  2  0  0  0  0  0  0  0  0  0
    0.7145   -0.4125    0.0000 C   0  0  0  0  0  0  0  0  0  0  0  0
   -0.0000   -0.0000    0.0000 C   0  0  0  0  0  0  0  0  0  0  0  0
   -0.0000    0.8250    0.0000 C   0  0  0  0  0  0  0  0  0  0  0  0
    0.7145    1.2375    0.0000 C   0  0  0  0  0  0  0  0  0  0  0  0
    1.4289    0.8250    0.0000 C   0  0  0  0  0  0  0  0  0  0  0  0
    1.4289   -0.0000    0.0000 C   0  0  0  0  0  0  0  0  0  0  0  0
   -0.0000   -1.6500    0.0000 C   0  0  0  0  0  0  0  0  0  0  0  0
   -0.7145   -2.0625    0.0000 N   0  0  0  0  0  0  0  0  0  0  0  0
  1  2  1  0  0  0  0
  2  3  1  0  0  0  0
  3  4  1  0  0  0  0
  4  5  1  1  0  0  0
  4  6  1  0  0  0  0
  6  7  1  0  0  0  0
  1  7  1  0  0  0  0
  7  8  1  1  0  0  0
  6  9  1  6  0  0  0
  3 10  1  6  0  0  0
 10 11  1  0  0  0  0
 12 11  1  6  0  0  0
 12 13  1  0  0  0  0
 13 14  1  0  0  0  0
 14 15  1  0  0  0  0
 15 16  1  1  0  0  0
 15 17  1  0  0  0  0
 17 18  1  0  0  0  0
 12 18  1  0  0  0  0
 18 19  1  1  0  0  0
 17 20  1  6  0  0  0
 14 21  1  6  0  0  0
 21 22  1  0  0  0  0
  1 23  1  6  0  0  0
 24 23  1  1  0  0  0
 24 25  1  0  0  0  0
 25 26  2  0  0  0  0
 26 27  1  0  0  0  0
 27 28  2  0  0  0  0
 28 29  1  0  0  0  0
 29 30  2  0  0  0  0
 25 30  1  0  0  0  0
 24 31  1  0  0  0  0
 31 32  3  0  0  0  0
M  END
>  <Name>
Laetrile

>  <CAS>
29883-15-6

>  <Formula>
C20H27NO11

>  <MolWt>
457.43 

>  <Bioactivity>
Laetrile is a glycoside initially isolated from the seeds of the tree Prunus dulcis, also known as bitter almonds.

>  <Pathways>
Others

>  <Target>
Others

>  <Receptor>
Others

>  <Reference>
1. Milazzo S, Horneber M. Cochrane Database Syst Rev. 2015 Apr 28;4:CD005476.

$$$$
T1648
  Mrv1561503291623562D          

 31 32  0  0  1  0            999 V2000
   -1.2118   -2.4072    0.0000 C   0  0  1  0  0  0  0  0  0  0  0  0
   -0.8245   -3.1357    0.0000 O   0  0  0  0  0  0  0  0  0  0  0  0
   -1.2617   -3.8353    0.0000 C   0  0  0  0  0  0  0  0  0  0  0  0
   -0.8744   -4.5637    0.0000 C   0  0  0  0  0  0  0  0  0  0  0  0
   -1.3116   -5.2634    0.0000 C   0  0  0  0  0  0  0  0  0  0  0  0
   -2.1360   -5.2346    0.0000 C   0  0  0  0  0  0  0  0  0  0  0  0
   -2.5234   -4.5061    0.0000 C   0  0  0  0  0  0  0  0  0  0  0  0
   -2.0862   -3.8065    0.0000 C   0  0  0  0  0  0  0  0  0  0  0  0
   -2.4735   -3.0781    0.0000 C   0  0  0  0  0  0  0  0  0  0  0  0
   -2.0363   -2.3784    0.0000 C   0  0  0  0  0  0  0  0  0  0  0  0
   -3.3479   -4.4774    0.0000 C   0  0  0  0  0  0  0  0  0  0  0  0
   -2.5732   -5.9342    0.0000 O   0  0  0  0  0  0  0  0  0  0  0  0
   -0.9242   -5.9918    0.0000 C   0  0  0  0  0  0  0  0  0  0  0  0
   -0.0499   -4.5925    0.0000 C   0  0  0  0  0  0  0  0  0  0  0  0
   -0.4973   -1.9947    0.0000 C   0  0  0  0  0  0  0  0  0  0  0  0
    0.2171   -2.4072    0.0000 C   0  0  0  0  0  0  0  0  0  0  0  0
    0.9316   -1.9947    0.0000 C   0  0  0  0  0  0  0  0  0  0  0  0
    1.6461   -2.4072    0.0000 C   0  0  1  0  0  0  0  0  0  0  0  0
    2.3605   -1.9947    0.0000 C   0  0  0  0  0  0  0  0  0  0  0  0
    3.0750   -2.4072    0.0000 C   0  0  0  0  0  0  0  0  0  0  0  0
    3.7895   -1.9947    0.0000 C   0  0  0  0  0  0  0  0  0  0  0  0
    4.5040   -2.4072    0.0000 C   0  0  1  0  0  0  0  0  0  0  0  0
    5.2184   -1.9947    0.0000 C   0  0  0  0  0  0  0  0  0  0  0  0
    5.9329   -2.4072    0.0000 C   0  0  0  0  0  0  0  0  0  0  0  0
    6.6474   -1.9947    0.0000 C   0  0  0  0  0  0  0  0  0  0  0  0
    7.3618   -2.4072    0.0000 C   0  0  0  0  0  0  0  0  0  0  0  0
    8.0763   -1.9947    0.0000 C   0  0  0  0  0  0  0  0  0  0  0  0
    7.3618   -3.2322    0.0000 C   0  0  0  0  0  0  0  0  0  0  0  0
    4.5040   -3.2322    0.0000 C   0  0  0  0  0  0  0  0  0  0  0  0
    1.6461   -3.2322    0.0000 C   0  0  0  0  0  0  0  0  0  0  0  0
   -1.1543   -1.5842    0.0000 C   0  0  0  0  0  0  0  0  0  0  0  0
  1  2  1  0  0  0  0
  2  3  1  0  0  0  0
  3  4  2  0  0  0  0
  4  5  1  0  0  0  0
  5  6  2  0  0  0  0
  6  7  1  0  0  0  0
  7  8  2  0  0  0  0
  3  8  1  0  0  0  0
  8  9  1  0  0  0  0
  9 10  1  0  0  0  0
  1 10  1  0  0  0  0
  7 11  1  0  0  0  0
  6 12  1  0  0  0  0
  5 13  1  0  0  0  0
  4 14  1  0  0  0  0
  1 15  1  1  0  0  0
 15 16  1  0  0  0  0
 16 17  1  0  0  0  0
 17 18  1  0  0  0  0
 18 19  1  0  0  0  0
 19 20  1  0  0  0  0
 20 21  1  0  0  0  0
 21 22  1  0  0  0  0
 22 23  1  0  0  0  0
 23 24  1  0  0  0  0
 24 25  1  0  0  0  0
 25 26  1  0  0  0  0
 26 27  1  0  0  0  0
 26 28  1  0  0  0  0
 22 29  1  1  0  0  0
 18 30  1  1  0  0  0
  1 31  1  6  0  0  0
M  END
>  <Name>
Vitamin E

>  <CAS>
59-02-9

>  <Formula>
C29H50O2

>  <MolWt>
430.71 

>  <Bioactivity>
A generic descriptor for all tocopherols and tocotrienols that exhibit alpha-tocopherol activity. By virtue of the phenolic hydrogen on the 2H-1-benzopyran-6-ol nucleus, these compounds exhibit varying degree of antioxidant activity, depending on the site and number of methyl groups and the type of isoprenoids. 


>  <Pathways>
Cell Cycle/Checkpoint; Vitamin

>  <Target>
PKC inhibitor; SEC14-like protein;VE

>  <Receptor>
GST P, GST omega-1, GST Mu 3;PKC; SEC14-like protein;VE

>  <Reference>
1. Ralat LA, Colman RF. Biochemistry. 2006 Oct 17;45(41):12491-9. 

$$$$
T0912
  Mrv1561503291623562D          

 34 35  0  0  1  0            999 V2000
   -0.7591    0.4503    0.0000 C   0  0  0  0  0  0  0  0  0  0  0  0
   -0.0447    0.8628    0.0000 C   0  0  0  0  0  0  0  0  0  0  0  0
    0.6698    0.4503    0.0000 C   0  0  0  0  0  0  0  0  0  0  0  0
    1.3843    0.8628    0.0000 C   0  0  0  0  0  0  0  0  0  0  0  0
    0.8540    1.4948    0.0000 O   0  0  0  0  0  0  0  0  0  0  0  0
    2.0988    0.4503    0.0000 C   0  0  0  0  0  0  0  0  0  0  0  0
    2.0988   -0.3747    0.0000 C   0  0  0  0  0  0  0  0  0  0  0  0
    1.3843   -0.7872    0.0000 C   0  0  0  0  0  0  0  0  0  0  0  0
    0.6698   -0.3747    0.0000 C   0  0  0  0  0  0  0  0  0  0  0  0
   -0.0447   -0.7872    0.0000 C   0  0  0  0  0  0  0  0  0  0  0  0
   -0.0447   -1.6122    0.0000 O   0  0  0  0  0  0  0  0  0  0  0  0
   -0.7591   -0.3747    0.0000 C   0  0  0  0  0  0  0  0  0  0  0  0
   -0.7591   -1.1997    0.0000 O   0  0  0  0  0  0  0  0  0  0  0  0
   -1.4736   -0.7872    0.0000 C   0  0  0  0  0  0  0  0  0  0  0  0
   -1.4736   -1.6122    0.0000 O   0  0  0  0  0  0  0  0  0  0  0  0
   -2.1881   -0.3747    0.0000 C   0  0  0  0  0  0  0  0  0  0  0  0
   -2.1881    0.4503    0.0000 C   0  0  0  0  0  0  0  0  0  0  0  0
   -2.9025    0.8628    0.0000 O   0  0  0  0  0  0  0  0  0  0  0  0
   -1.4736    0.8628    0.0000 C   0  0  0  0  0  0  0  0  0  0  0  0
   -1.4736    1.6878    0.0000 N   0  0  0  0  0  0  0  0  0  0  0  0
   -0.7591    2.1003    0.0000 C   0  0  0  0  0  0  0  0  0  0  0  0
   -2.1881    2.1003    0.0000 C   0  0  0  0  0  0  0  0  0  0  0  0
   -2.9025   -0.7872    0.0000 C   0  0  0  0  0  0  0  0  0  0  0  0
   -2.9025   -1.6122    0.0000 O   0  0  0  0  0  0  0  0  0  0  0  0
   -3.6170   -0.3747    0.0000 N   0  0  0  0  0  0  0  0  0  0  0  0
    1.3843   -1.6122    0.0000 O   0  0  0  0  0  0  0  0  0  0  0  0
    2.8132   -0.7872    0.0000 C   0  0  0  0  0  0  0  0  0  0  0  0
    3.5277   -0.3747    0.0000 C   0  0  0  0  0  0  0  0  0  0  0  0
    3.5277    0.4503    0.0000 C   0  0  0  0  0  0  0  0  0  0  0  0
    2.8132    0.8628    0.0000 C   0  0  0  0  0  0  0  0  0  0  0  0
    2.8132   -1.6122    0.0000 O   0  0  0  0  0  0  0  0  0  0  0  0
    1.9146    1.4948    0.0000 C   0  0  0  0  0  0  0  0  0  0  0  0
    6.7098    0.0000    0.0000 H   0  3  0  0  0  0  0  0  0  0  0  0
    5.8848    0.0000    0.0000 Cl  0  5  0  0  0  0  0  0  0  0  0  0
  1  2  1  0  0  0  0
  2  3  1  0  0  0  0
  3  4  1  0  0  0  0
  4  5  1  0  0  0  0
  4  6  1  0  0  0  0
  6  7  2  0  0  0  0
  7  8  1  0  0  0  0
  8  9  2  0  0  0  0
  3  9  1  0  0  0  0
  9 10  1  0  0  0  0
 10 11  2  0  0  0  0
 10 12  1  0  0  0  0
  1 12  1  0  0  0  0
 12 13  1  0  0  0  0
 12 14  1  0  0  0  0
 14 15  2  0  0  0  0
 14 16  1  0  0  0  0
 16 17  1  0  0  0  0
 17 18  2  0  0  0  0
 17 19  1  0  0  0  0
  1 19  1  0  0  0  0
 19 20  1  0  0  0  0
 20 21  1  0  0  0  0
 20 22  1  0  0  0  0
 16 23  2  0  0  0  0
 23 24  1  0  0  0  0
 23 25  1  0  0  0  0
  8 26  1  0  0  0  0
  7 27  1  0  0  0  0
 27 28  2  0  0  0  0
 28 29  1  0  0  0  0
 29 30  2  0  0  0  0
  6 30  1  0  0  0  0
 27 31  1  0  0  0  0
  4 32  1  0  0  0  0
M  CHG  2  33   1  34  -1
M  END
>  <Name>
Tetracycline HCl

>  <CAS>
64-75-5

>  <Formula>
C22H24N2O8 HCl

>  <MolWt>
480.90 

>  <Bioactivity>
Tetracycline HCl is a hydrochloride salt of tetracycline that is a broad-spectrum polyketide antibiotic.

>  <Pathways>
Microbiology & Virology

>  <Target>
Antibiotic

>  <Receptor>
30S ribosomal protein

>  <Reference>
1. Buck MA, Cooperman BS. Biochemistry. 1990 Jun 5;29(22):5374-9. 

$$$$
7085-55-4
  Mrv1561503291623562D          

 52 56  0  0  0  0            999 V2000
   -1.4289    0.8250    0.0000 C   0  0  0  0  0  0  0  0  0  0  0  0
   -2.1434    1.2375    0.0000 C   0  0  0  0  0  0  0  0  0  0  0  0
   -2.8579    0.8250    0.0000 C   0  0  0  0  0  0  0  0  0  0  0  0
   -2.8579   -0.0000    0.0000 C   0  0  0  0  0  0  0  0  0  0  0  0
   -2.1434   -0.4125    0.0000 C   0  0  0  0  0  0  0  0  0  0  0  0
   -1.4289   -0.0000    0.0000 C   0  0  0  0  0  0  0  0  0  0  0  0
   -0.7145   -0.4125    0.0000 C   0  0  0  0  0  0  0  0  0  0  0  0
   -0.7145   -1.2375    0.0000 C   0  0  0  0  0  0  0  0  0  0  0  0
   -0.0000   -1.6500    0.0000 C   0  0  0  0  0  0  0  0  0  0  0  0
    0.7145   -1.2375    0.0000 C   0  0  0  0  0  0  0  0  0  0  0  0
    0.7145   -0.4125    0.0000 C   0  0  0  0  0  0  0  0  0  0  0  0
   -0.0000   -0.0000    0.0000 O   0  0  0  0  0  0  0  0  0  0  0  0
    1.4289    0.0000    0.0000 C   0  0  0  0  0  0  0  0  0  0  0  0
    2.1434   -0.4125    0.0000 C   0  0  0  0  0  0  0  0  0  0  0  0
    2.8579   -0.0000    0.0000 O   0  0  0  0  0  0  0  0  0  0  0  0
    3.5724   -0.4125    0.0000 C   0  0  0  0  0  0  0  0  0  0  0  0
    4.2868   -0.0000    0.0000 C   0  0  0  0  0  0  0  0  0  0  0  0
    5.0013   -0.4125    0.0000 O   0  0  0  0  0  0  0  0  0  0  0  0
    2.1434   -1.2375    0.0000 C   0  0  0  0  0  0  0  0  0  0  0  0
    1.4289   -1.6500    0.0000 C   0  0  0  0  0  0  0  0  0  0  0  0
    1.4289   -2.4750    0.0000 O   0  0  0  0  0  0  0  0  0  0  0  0
    0.0000   -2.4750    0.0000 O   0  0  0  0  0  0  0  0  0  0  0  0
   -1.4289   -1.6500    0.0000 O   0  0  0  0  0  0  0  0  0  0  0  0
   -1.4289   -2.4750    0.0000 C   0  0  0  0  0  0  0  0  0  0  0  0
   -0.7145   -2.8875    0.0000 O   0  0  0  0  0  0  0  0  0  0  0  0
   -0.7145   -3.7125    0.0000 C   0  0  0  0  0  0  0  0  0  0  0  0
   -1.4289   -4.1250    0.0000 C   0  0  0  0  0  0  0  0  0  0  0  0
   -1.4289   -4.9500    0.0000 O   0  0  0  0  0  0  0  0  0  0  0  0
   -2.1434   -3.7125    0.0000 C   0  0  0  0  0  0  0  0  0  0  0  0
   -2.1434   -2.8875    0.0000 C   0  0  0  0  0  0  0  0  0  0  0  0
   -2.8579   -2.4750    0.0000 O   0  0  0  0  0  0  0  0  0  0  0  0
   -2.8579   -4.1250    0.0000 O   0  0  0  0  0  0  0  0  0  0  0  0
    0.0000   -4.1250    0.0000 C   0  0  0  0  0  0  0  0  0  0  0  0
    0.7145   -3.7125    0.0000 O   0  0  0  0  0  0  0  0  0  0  0  0
    1.4289   -4.1250    0.0000 C   0  0  0  0  0  0  0  0  0  0  0  0
    2.1434   -3.7125    0.0000 C   0  0  0  0  0  0  0  0  0  0  0  0
    2.8579   -4.1250    0.0000 C   0  0  0  0  0  0  0  0  0  0  0  0
    2.8579   -4.9500    0.0000 C   0  0  0  0  0  0  0  0  0  0  0  0
    3.5724   -5.3625    0.0000 O   0  0  0  0  0  0  0  0  0  0  0  0
    2.1434   -5.3625    0.0000 C   0  0  0  0  0  0  0  0  0  0  0  0
    1.4289   -4.9500    0.0000 O   0  0  0  0  0  0  0  0  0  0  0  0
    2.1434   -6.1875    0.0000 C   0  0  0  0  0  0  0  0  0  0  0  0
    3.5724   -3.7125    0.0000 O   0  0  0  0  0  0  0  0  0  0  0  0
    2.1434   -2.8875    0.0000 O   0  0  0  0  0  0  0  0  0  0  0  0
   -3.5724    1.2375    0.0000 O   0  0  0  0  0  0  0  0  0  0  0  0
   -4.2868    0.8250    0.0000 C   0  0  0  0  0  0  0  0  0  0  0  0
   -5.0013    1.2375    0.0000 C   0  0  0  0  0  0  0  0  0  0  0  0
   -5.7158    0.8250    0.0000 O   0  0  0  0  0  0  0  0  0  0  0  0
   -2.1434    2.0625    0.0000 O   0  0  0  0  0  0  0  0  0  0  0  0
   -2.8579    2.4750    0.0000 C   0  0  0  0  0  0  0  0  0  0  0  0
   -2.8579    3.3000    0.0000 C   0  0  0  0  0  0  0  0  0  0  0  0
   -3.5724    3.7125    0.0000 O   0  0  0  0  0  0  0  0  0  0  0  0
  1  2  2  0  0  0  0
  2  3  1  0  0  0  0
  3  4  2  0  0  0  0
  4  5  1  0  0  0  0
  5  6  2  0  0  0  0
  1  6  1  0  0  0  0
  6  7  1  0  0  0  0
  7  8  2  0  0  0  0
  8  9  1  0  0  0  0
  9 10  1  0  0  0  0
 10 11  2  0  0  0  0
 11 12  1  0  0  0  0
  7 12  1  0  0  0  0
 11 13  1  0  0  0  0
 13 14  2  0  0  0  0
 14 15  1  0  0  0  0
 15 16  1  0  0  0  0
 16 17  1  0  0  0  0
 17 18  1  0  0  0  0
 14 19  1  0  0  0  0
 19 20  2  0  0  0  0
 10 20  1  0  0  0  0
 20 21  1  0  0  0  0
  9 22  2  0  0  0  0
  8 23  1  0  0  0  0
 23 24  1  0  0  0  0
 24 25  1  0  0  0  0
 25 26  1  0  0  0  0
 26 27  1  0  0  0  0
 27 28  1  0  0  0  0
 27 29  1  0  0  0  0
 29 30  1  0  0  0  0
 24 30  1  0  0  0  0
 30 31  1  0  0  0  0
 29 32  1  0  0  0  0
 26 33  1  0  0  0  0
 33 34  1  0  0  0  0
 34 35  1  0  0  0  0
 35 36  1  0  0  0  0
 36 37  1  0  0  0  0
 37 38  1  0  0  0  0
 38 39  1  0  0  0  0
 38 40  1  0  0  0  0
 40 41  1  0  0  0  0
 35 41  1  0  0  0  0
 40 42  1  0  0  0  0
 37 43  1  0  0  0  0
 36 44  1  0  0  0  0
  3 45  1  0  0  0  0
 45 46  1  0  0  0  0
 46 47  1  0  0  0  0
 47 48  1  0  0  0  0
  2 49  1  0  0  0  0
 49 50  1  0  0  0  0
 50 51  1  0  0  0  0
 51 52  1  0  0  0  0
M  END
>  <Name>
Troxerutin

>  <CAS>
7085-55-4

>  <Formula>
C33H42O19

>  <MolWt>
346.50 

>  <Bioactivity>
Troxerutin, a natural bioflavonoid isolated from Sophora japonica., has been reported to have many benefits and medicinal properties.

>  <Pathways>
Others

>  <Target>
Others

>  <Receptor>
Others

>  <Reference>
1. Lu J, et al. Brain. 2011 Mar;134(Pt 3):783-97. 

$$$$
T1448L
  Mrv1561503291623562D          

 34 36  0  0  0  0            999 V2000
    0.3733    1.6256    0.0000 C   0  0  0  0  0  0  0  0  0  0  0  0
    1.0877    2.0381    0.0000 C   0  0  0  0  0  0  0  0  0  0  0  0
    1.0877    2.8631    0.0000 N   0  0  0  0  0  0  0  0  0  0  0  0
    0.3733    3.2756    0.0000 C   0  0  0  0  0  0  0  0  0  0  0  0
    0.3733    4.1006    0.0000 C   0  0  0  0  0  0  0  0  0  0  0  0
    1.0877    4.5131    0.0000 N   0  0  0  0  0  0  0  0  0  0  0  0
    1.8022    4.1006    0.0000 C   0  0  0  0  0  0  0  0  0  0  0  0
    1.8022    3.2756    0.0000 C   0  0  0  0  0  0  0  0  0  0  0  0
    1.0877    5.3381    0.0000 C   0  0  0  0  0  0  0  0  0  0  0  0
    1.8022    5.7506    0.0000 C   0  0  0  0  0  0  0  0  0  0  0  0
    1.8022    6.5756    0.0000 O   0  0  0  0  0  0  0  0  0  0  0  0
    1.8022    1.6256    0.0000 N   0  0  0  0  0  0  0  0  0  0  0  0
    1.8022    0.8006    0.0000 C   0  0  0  0  0  0  0  0  0  0  0  0
    1.0877    0.3881    0.0000 N   0  0  0  0  0  0  0  0  0  0  0  0
    0.3733    0.8006    0.0000 C   0  0  0  0  0  0  0  0  0  0  0  0
   -0.3412    0.3881    0.0000 N   0  0  0  0  0  0  0  0  0  0  0  0
   -0.3412   -0.4369    0.0000 C   0  0  0  0  0  0  0  0  0  0  0  0
    0.3262   -0.9218    0.0000 N   0  0  0  0  0  0  0  0  0  0  0  0
    0.0713   -1.7065    0.0000 C   0  0  0  0  0  0  0  0  0  0  0  0
   -0.7537   -1.7065    0.0000 C   0  0  0  0  0  0  0  0  0  0  0  0
   -1.0086   -0.9218    0.0000 S   0  0  0  0  0  0  0  0  0  0  0  0
   -1.2386   -2.3739    0.0000 C   0  0  0  0  0  0  0  0  0  0  0  0
   -2.0591   -2.2877    0.0000 O   0  0  0  0  0  0  0  0  0  0  0  0
   -0.9031   -3.1276    0.0000 N   0  0  0  0  0  0  0  0  0  0  0  0
   -1.3880   -3.7950    0.0000 C   0  0  0  0  0  0  0  0  0  0  0  0
   -1.0524   -4.5487    0.0000 C   0  0  0  0  0  0  0  0  0  0  0  0
   -1.5374   -5.2161    0.0000 C   0  0  0  0  0  0  0  0  0  0  0  0
   -2.3578   -5.1299    0.0000 C   0  0  0  0  0  0  0  0  0  0  0  0
   -2.6934   -4.3762    0.0000 C   0  0  0  0  0  0  0  0  0  0  0  0
   -2.2085   -3.7088    0.0000 C   0  0  0  0  0  0  0  0  0  0  0  0
   -2.5440   -2.9551    0.0000 Cl  0  0  0  0  0  0  0  0  0  0  0  0
   -0.2320   -4.6349    0.0000 C   0  0  0  0  0  0  0  0  0  0  0  0
    2.5167    0.3881    0.0000 C   0  0  0  0  0  0  0  0  0  0  0  0
    4.8738    0.0000    0.0000 O   0  0  0  0  0  0  0  0  0  0  0  0
  1  2  2  0  0  0  0
  2  3  1  0  0  0  0
  3  4  1  0  0  0  0
  4  5  1  0  0  0  0
  5  6  1  0  0  0  0
  6  7  1  0  0  0  0
  7  8  1  0  0  0  0
  3  8  1  0  0  0  0
  6  9  1  0  0  0  0
  9 10  1  0  0  0  0
 10 11  1  0  0  0  0
  2 12  1  0  0  0  0
 12 13  2  0  0  0  0
 13 14  1  0  0  0  0
 14 15  2  0  0  0  0
  1 15  1  0  0  0  0
 15 16  1  0  0  0  0
 16 17  1  0  0  0  0
 17 18  2  0  0  0  0
 18 19  1  0  0  0  0
 19 20  2  0  0  0  0
 20 21  1  0  0  0  0
 17 21  1  0  0  0  0
 20 22  1  0  0  0  0
 22 23  2  0  0  0  0
 22 24  1  0  0  0  0
 24 25  1  0  0  0  0
 25 26  2  0  0  0  0
 26 27  1  0  0  0  0
 27 28  2  0  0  0  0
 28 29  1  0  0  0  0
 29 30  2  0  0  0  0
 25 30  1  0  0  0  0
 30 31  1  0  0  0  0
 26 32  1  0  0  0  0
 13 33  1  0  0  0  0
M  END
>  <Name>
Dasatinib monohydrate

>  <CAS>
863127-77-9

>  <Formula>
C22H28ClN7O3S

>  <MolWt>
506.03 

>  <Bioactivity>
Dasatinib is an oral dual BCR/ABL and Src family tyrosine kinase inhibitor approved for use in patients with chronic myelogenous leukemia (CML). The main targets of Dasatinib, are BCRABL, SRC, Ephrins and GFR.

>  <Pathways>
Tyrosine Kinase/Adaptors

>  <Target>
Bcr-Abl inhibitor;EPHA antagonist;Mast/stem cell GFR Kit; Src inhibitor

>  <Receptor>
Abl, Lck, Yes, Fyn;EPHA;Mast/stem cell GFR Kit;Src

>  <Reference>
1. O'Hare T, et al. Cancer Res. 2005, 65(11), 4500-4505.

$$$$
T0907
  Mrv1561503291623562D          

 28 30  0  0  0  0            999 V2000
    0.7145   -3.7125    0.0000 C   0  0  0  0  0  0  0  0  0  0  0  0
   -0.0000   -4.1250    0.0000 C   0  0  0  0  0  0  0  0  0  0  0  0
   -0.0000   -4.9500    0.0000 S   0  0  0  0  0  0  0  0  0  0  0  0
    0.8250   -4.9500    0.0000 O   0  0  0  0  0  0  0  0  0  0  0  0
   -0.8250   -4.9500    0.0000 O   0  0  0  0  0  0  0  0  0  0  0  0
   -0.0000   -5.7750    0.0000 N   0  0  0  0  0  0  0  0  0  0  0  0
    0.7145   -6.1875    0.0000 C   0  0  0  0  0  0  0  0  0  0  0  0
    1.4289   -5.7750    0.0000 C   0  0  0  0  0  0  0  0  0  0  0  0
    2.1434   -6.1875    0.0000 C   0  0  0  0  0  0  0  0  0  0  0  0
    2.1434   -7.0125    0.0000 C   0  0  0  0  0  0  0  0  0  0  0  0
    1.4289   -7.4250    0.0000 C   0  0  0  0  0  0  0  0  0  0  0  0
    0.7145   -7.0125    0.0000 N   0  0  0  0  0  0  0  0  0  0  0  0
   -0.7145   -3.7125    0.0000 C   0  0  0  0  0  0  0  0  0  0  0  0
   -0.7145   -2.8875    0.0000 C   0  0  0  0  0  0  0  0  0  0  0  0
   -0.0000   -2.4750    0.0000 C   0  0  0  0  0  0  0  0  0  0  0  0
    0.7145   -2.8875    0.0000 C   0  0  0  0  0  0  0  0  0  0  0  0
   -0.0000   -1.6500    0.0000 N   0  0  0  0  0  0  0  0  0  0  0  0
    0.7145   -1.2375    0.0000 N   0  0  0  0  0  0  0  0  0  0  0  0
    0.7145   -0.4125    0.0000 C   0  0  0  0  0  0  0  0  0  0  0  0
    0.0000    0.0000    0.0000 C   0  0  0  0  0  0  0  0  0  0  0  0
    0.0000    0.8250    0.0000 C   0  0  0  0  0  0  0  0  0  0  0  0
    0.7145    1.2375    0.0000 C   0  0  0  0  0  0  0  0  0  0  0  0
    0.7145    2.0625    0.0000 O   0  0  0  0  0  0  0  0  0  0  0  0
    1.4289    0.8250    0.0000 C   0  0  0  0  0  0  0  0  0  0  0  0
    1.4289   -0.0000    0.0000 C   0  0  0  0  0  0  0  0  0  0  0  0
   -0.7145    1.2375    0.0000 C   0  0  0  0  0  0  0  0  0  0  0  0
   -0.7145    2.0625    0.0000 O   0  0  0  0  0  0  0  0  0  0  0  0
   -1.4289    0.8250    0.0000 O   0  0  0  0  0  0  0  0  0  0  0  0
  1  2  2  0  0  0  0
  2  3  1  0  0  0  0
  3  4  2  0  0  0  0
  3  5  2  0  0  0  0
  3  6  1  0  0  0  0
  6  7  1  0  0  0  0
  7  8  2  0  0  0  0
  8  9  1  0  0  0  0
  9 10  2  0  0  0  0
 10 11  1  0  0  0  0
 11 12  2  0  0  0  0
  7 12  1  0  0  0  0
  2 13  1  0  0  0  0
 13 14  2  0  0  0  0
 14 15  1  0  0  0  0
 15 16  2  0  0  0  0
  1 16  1  0  0  0  0
 15 17  1  0  0  0  0
 17 18  1  0  0  0  0
 18 19  2  0  0  0  0
 19 20  1  0  0  0  0
 20 21  2  0  0  0  0
 21 22  1  0  0  0  0
 22 23  2  0  0  0  0
 22 24  1  0  0  0  0
 24 25  2  0  0  0  0
 19 25  1  0  0  0  0
 21 26  1  0  0  0  0
 26 27  1  0  0  0  0
 26 28  2  0  0  0  0
M  END
>  <Name>
Sulfasalazine

>  <CAS>
599-79-1

>  <Formula>
C18H14N4O5S

>  <MolWt>
398.39 

>  <Bioactivity>
A drug that is used in the management of inflammatory bowel diseases. Its activity is generally considered to lie in its metabolic breakdown product, 5-aminosalicylic acid (see MESALAMINE) released in the colon. (From Martindale, The Extra Pharmacopoeia, 30th ed, p907) 

>  <Pathways>
Immunology/Inflammation

>  <Target>
NF-?B inhibitor;COX inhibitor

>  <Receptor>
Prostaglandin G/H synthase 1,2;NF-?B

>  <Reference>
1. Weber CK, et al. Gastroenterology. 2000 Nov;119(5):1209-18. 

$$$$
51481-61-9
  Mrv1561503291623562D          

 17 17  0  0  0  0            999 V2000
   -2.6876    0.6199    0.0000 C   0  0  0  0  0  0  0  0  0  0  0  0
   -2.1356    1.2330    0.0000 N   0  0  0  0  0  0  0  0  0  0  0  0
   -1.3819    0.8974    0.0000 C   0  0  0  0  0  0  0  0  0  0  0  0
   -1.4681    0.0769    0.0000 C   0  0  0  0  0  0  0  0  0  0  0  0
   -2.2751   -0.0946    0.0000 N   0  0  0  0  0  0  0  0  0  0  0  0
   -0.8551   -0.4751    0.0000 C   0  0  0  0  0  0  0  0  0  0  0  0
   -0.6674    1.3099    0.0000 C   0  0  0  0  0  0  0  0  0  0  0  0
    0.0470    0.8974    0.0000 S   0  0  0  0  0  0  0  0  0  0  0  0
    0.7615    1.3099    0.0000 C   0  0  0  0  0  0  0  0  0  0  0  0
    1.4760    0.8974    0.0000 C   0  0  0  0  0  0  0  0  0  0  0  0
    2.1904    1.3099    0.0000 N   0  0  0  0  0  0  0  0  0  0  0  0
    2.9049    0.8974    0.0000 C   0  0  0  0  0  0  0  0  0  0  0  0
    3.6194    1.3099    0.0000 N   0  0  0  0  0  0  0  0  0  0  0  0
    3.6194    2.1349    0.0000 C   0  0  0  0  0  0  0  0  0  0  0  0
    3.6194    2.9599    0.0000 N   0  0  0  0  0  0  0  0  0  0  0  0
    2.9049    0.0724    0.0000 N   0  0  0  0  0  0  0  0  0  0  0  0
    2.1904   -0.3401    0.0000 C   0  0  0  0  0  0  0  0  0  0  0  0
  1  2  2  0  0  0  0
  2  3  1  0  0  0  0
  3  4  2  0  0  0  0
  4  5  1  0  0  0  0
  1  5  1  0  0  0  0
  4  6  1  0  0  0  0
  3  7  1  0  0  0  0
  7  8  1  0  0  0  0
  8  9  1  0  0  0  0
  9 10  1  0  0  0  0
 10 11  1  0  0  0  0
 11 12  1  0  0  0  0
 12 13  1  0  0  0  0
 13 14  1  0  0  0  0
 14 15  3  0  0  0  0
 12 16  2  0  0  0  0
 16 17  1  4  0  0  0
M  END
>  <Name>
Cimetidine

>  <CAS>
51481-61-9

>  <Formula>
C10H16N6S

>  <MolWt>
252.34 

>  <Bioactivity>
A histamine congener, it competitively inhibits HISTAMINE binding to HISTAMINE H2 RECEPTORS. Cimetidine has a range of pharmacological actions. It inhibits GASTRIC ACID secretion, as well as PEPSIN and GASTRIN output.

>  <Pathways>
Neuroscience

>  <Target>
Histamine Receptor antagonist

>  <Receptor>
Histamine H2 receptor

>  <Reference>
1. Hernandez-Munoz R, et al. Lab Invest. 2000 Aug; 80(8): 1161-9.

$$$$
3818-50-6
  Mrv1561503291623562D          

 33 35  0  0  0  0            999 V2000
   -0.0510   -0.6777    0.0000 C   0  0  0  0  0  0  0  0  0  0  0  0
    0.6634   -0.2652    0.0000 C   0  0  0  0  0  0  0  0  0  0  0  0
    0.6634    0.5598    0.0000 C   0  0  0  0  0  0  0  0  0  0  0  0
   -0.0510    0.9723    0.0000 C   0  0  0  0  0  0  0  0  0  0  0  0
   -0.7655    0.5598    0.0000 C   0  0  0  0  0  0  0  0  0  0  0  0
   -0.7655   -0.2652    0.0000 C   0  0  0  0  0  0  0  0  0  0  0  0
   -1.4800   -0.6777    0.0000 C   0  0  0  0  0  0  0  0  0  0  0  0
   -2.1944   -0.2652    0.0000 O   0  0  0  0  0  0  0  0  0  0  0  0
   -1.4800   -1.5027    0.0000 O   0  5  0  0  0  0  0  0  0  0  0  0
   -1.4800    0.9723    0.0000 O   0  0  0  0  0  0  0  0  0  0  0  0
    1.3779    0.9723    0.0000 C   0  0  0  0  0  0  0  0  0  0  0  0
    2.0924    0.5598    0.0000 C   0  0  0  0  0  0  0  0  0  0  0  0
    2.0924   -0.2652    0.0000 C   0  0  0  0  0  0  0  0  0  0  0  0
    1.3779   -0.6777    0.0000 C   0  0  0  0  0  0  0  0  0  0  0  0
    7.5504   -2.1928    0.0000 C   0  0  0  0  0  0  0  0  0  0  0  0
    7.5504   -3.0178    0.0000 C   0  0  0  0  0  0  0  0  0  0  0  0
    6.8360   -3.4303    0.0000 C   0  0  0  0  0  0  0  0  0  0  0  0
    6.1215   -3.0178    0.0000 C   0  0  0  0  0  0  0  0  0  0  0  0
    6.1215   -2.1928    0.0000 C   0  0  0  0  0  0  0  0  0  0  0  0
    6.8360   -1.7803    0.0000 C   0  0  0  0  0  0  0  0  0  0  0  0
    6.8360   -0.9553    0.0000 C   0  0  0  0  0  0  0  0  0  0  0  0
    6.1215   -0.5428    0.0000 N   0  3  0  0  0  0  0  0  0  0  0  0
    5.4070   -0.1303    0.0000 C   0  0  0  0  0  0  0  0  0  0  0  0
    5.4070    0.6947    0.0000 C   0  0  0  0  0  0  0  0  0  0  0  0
    4.6926    1.1072    0.0000 O   0  0  0  0  0  0  0  0  0  0  0  0
    4.6926    1.9322    0.0000 C   0  0  0  0  0  0  0  0  0  0  0  0
    3.9781    2.3447    0.0000 C   0  0  0  0  0  0  0  0  0  0  0  0
    3.9781    3.1697    0.0000 C   0  0  0  0  0  0  0  0  0  0  0  0
    4.6926    3.5822    0.0000 C   0  0  0  0  0  0  0  0  0  0  0  0
    5.4070    3.1697    0.0000 C   0  0  0  0  0  0  0  0  0  0  0  0
    5.4070    2.3447    0.0000 C   0  0  0  0  0  0  0  0  0  0  0  0
    6.5340    0.1717    0.0000 C   0  0  0  0  0  0  0  0  0  0  0  0
    5.7090   -1.2572    0.0000 C   0  0  0  0  0  0  0  0  0  0  0  0
  1  2  2  0  0  0  0
  2  3  1  0  0  0  0
  3  4  2  0  0  0  0
  4  5  1  0  0  0  0
  5  6  2  0  0  0  0
  1  6  1  0  0  0  0
  6  7  1  0  0  0  0
  7  8  2  0  0  0  0
  7  9  1  0  0  0  0
  5 10  1  0  0  0  0
  3 11  1  0  0  0  0
 11 12  2  0  0  0  0
 12 13  1  0  0  0  0
 13 14  2  0  0  0  0
  2 14  1  0  0  0  0
 15 16  2  0  0  0  0
 16 17  1  0  0  0  0
 17 18  2  0  0  0  0
 18 19  1  0  0  0  0
 19 20  2  0  0  0  0
 15 20  1  0  0  0  0
 20 21  1  0  0  0  0
 21 22  1  0  0  0  0
 22 23  1  0  0  0  0
 23 24  1  0  0  0  0
 24 25  1  0  0  0  0
 25 26  1  0  0  0  0
 26 27  2  0  0  0  0
 27 28  1  0  0  0  0
 28 29  2  0  0  0  0
 29 30  1  0  0  0  0
 30 31  2  0  0  0  0
 26 31  1  0  0  0  0
 22 32  1  0  0  0  0
 22 33  1  0  0  0  0
M  CHG  2   9  -1  22   1
M  END
>  <Name>
Bephenium Hydroxynaphthoate

>  <CAS>
3818-50-6

>  <Formula>
C28H29NO4

>  <MolWt>
443.53 

>  <Bioactivity>
Bephenium hydroxynaphthoate (INN, trade names Alcopara, Alcopar, Befenium, Debefenium, Francin, Nemex) is an anthelmintic agent formerly used in the treatment of hookworm infections and ascariasis.

>  <Pathways>
Others

>  <Target>
Others

>  <Receptor>
Others

>  <Reference>
1. MEHROTRA MP, MALAVIYA US. Indian J Med Sci. 1963 Dec;17:930-3.

$$$$
T0911
  Mrv1561503291623562D          

 31 32  0  0  1  0            999 V2000
    1.6905   -0.1510    0.0000 C   0  0  0  0  0  0  0  0  0  0  0  0
    2.4049    0.2615    0.0000 S   0  0  0  0  0  0  0  0  0  0  0  0
    3.1194   -0.1510    0.0000 C   0  0  0  0  0  0  0  0  0  0  0  0
    3.1194   -0.9760    0.0000 C   0  0  0  0  0  0  0  0  0  0  0  0
    2.4049   -1.3885    0.0000 C   0  0  0  0  0  0  0  0  0  0  0  0
    1.6905   -0.9760    0.0000 N   0  0  0  0  0  0  0  0  0  0  0  0
    0.8655   -0.9760    0.0000 C   0  0  0  0  0  0  0  0  0  0  0  0
    0.2821   -1.5593    0.0000 O   0  0  0  0  0  0  0  0  0  0  0  0
    0.8655   -0.1510    0.0000 C   0  0  0  0  0  0  0  0  0  0  0  0
    0.2821    0.4324    0.0000 N   0  0  0  0  0  0  0  0  0  0  0  0
   -0.5148    0.2189    0.0000 C   0  0  0  0  0  0  0  0  0  0  0  0
   -0.7283   -0.5780    0.0000 O   0  0  0  0  0  0  0  0  0  0  0  0
   -1.0982    0.8022    0.0000 C   0  0  0  0  0  0  0  0  0  0  0  0
   -0.8846    1.5991    0.0000 N   0  0  0  0  0  0  0  0  0  0  0  0
   -0.0877    1.8126    0.0000 O   0  0  0  0  0  0  0  0  0  0  0  0
    0.1258    2.6095    0.0000 C   0  0  0  0  0  0  0  0  0  0  0  0
   -1.8950    0.5887    0.0000 C   0  0  0  0  0  0  0  0  0  0  0  0
   -2.1907   -0.1815    0.0000 C   0  0  0  0  0  0  0  0  0  0  0  0
   -3.0146   -0.1383    0.0000 S   0  0  0  0  0  0  0  0  0  0  0  0
   -3.2281    0.6586    0.0000 C   0  0  0  0  0  0  0  0  0  0  0  0
   -2.5362    1.1079    0.0000 N   0  0  0  0  0  0  0  0  0  0  0  0
   -3.9983    0.9542    0.0000 N   0  0  0  0  0  0  0  0  0  0  0  0
    2.4049   -2.2135    0.0000 C   0  0  0  0  0  0  0  0  0  0  0  0
    1.6905   -2.6260    0.0000 O   0  5  0  0  0  0  0  0  0  0  0  0
    3.1194   -2.6260    0.0000 O   0  0  0  0  0  0  0  0  0  0  0  0
    3.8339   -1.3885    0.0000 C   0  0  0  0  0  0  0  0  0  0  0  0
    4.5483   -0.9760    0.0000 O   0  0  0  0  0  0  0  0  0  0  0  0
    5.2628   -1.3885    0.0000 C   0  0  0  0  0  0  0  0  0  0  0  0
    5.9773   -0.9760    0.0000 O   0  0  0  0  0  0  0  0  0  0  0  0
    5.2628   -2.2135    0.0000 C   0  0  0  0  0  0  0  0  0  0  0  0
    0.9760   -3.0385    0.0000 Na  0  3  0  0  0  0  0  0  0  0  0  0
  1  2  1  0  0  0  0
  2  3  1  0  0  0  0
  3  4  1  0  0  0  0
  4  5  2  0  0  0  0
  5  6  1  0  0  0  0
  1  6  1  0  0  0  0
  6  7  1  0  0  0  0
  7  8  2  0  0  0  0
  7  9  1  0  0  0  0
  1  9  1  0  0  0  0
  9 10  1  0  0  0  0
 10 11  1  0  0  0  0
 11 12  2  0  0  0  0
 11 13  1  0  0  0  0
 13 14  2  0  0  0  0
 14 15  1  0  0  0  0
 15 16  1  0  0  0  0
 13 17  1  0  0  0  0
 17 18  2  0  0  0  0
 18 19  1  0  0  0  0
 19 20  1  0  0  0  0
 20 21  2  0  0  0  0
 17 21  1  0  0  0  0
 20 22  1  0  0  0  0
  5 23  1  0  0  0  0
 23 24  1  0  0  0  0
 23 25  2  0  0  0  0
  4 26  1  0  0  0  0
 26 27  1  0  0  0  0
 27 28  1  0  0  0  0
 28 29  2  0  0  0  0
 28 30  1  0  0  0  0
M  CHG  2  24  -1  31   1
M  END
>  <Name>
Cefotaxime sodium

>  <CAS>
64485-93-4

>  <Formula>
C16H16N5NaO7S2

>  <MolWt>
477.44 

>  <Bioactivity>
Cefotaxime is a third-generation cephalosporin antibiotic. Like other third-generation cephalosporins, it has broad spectrum activity against Gram positive and Gram negative bacteria. In most cases, it is considered to be equivalent to ceftriaxone in terms of safety and efficacy. Cefotaxime sodium is marketed under various trade names including Claforan (Sanofi-Aventis). 

>  <Pathways>
Microbiology & Virology

>  <Target>
Antibiotic

>  <Receptor>
PBPs

>  <Reference>
1. Williamson R, et al. Antimicrob Agents Chemother. 1980 Oct;18(4):629-37.

$$$$
1642-54-2
  Mrv1561503291623562D          

 27 26  0  0  0  0            999 V2000
   -1.0207    0.6482    0.0000 C   0  0  0  0  0  0  0  0  0  0  0  0
   -0.3062    1.0607    0.0000 N   0  0  0  0  0  0  0  0  0  0  0  0
    0.4083    0.6482    0.0000 C   0  0  0  0  0  0  0  0  0  0  0  0
    0.4083   -0.1768    0.0000 N   0  0  0  0  0  0  0  0  0  0  0  0
    1.1227   -0.5893    0.0000 C   0  0  0  0  0  0  0  0  0  0  0  0
    1.1227   -1.4143    0.0000 C   0  0  0  0  0  0  0  0  0  0  0  0
    0.4083   -1.8268    0.0000 N   0  0  0  0  0  0  0  0  0  0  0  0
    0.4083   -2.6518    0.0000 C   0  0  0  0  0  0  0  0  0  0  0  0
   -0.3062   -1.4143    0.0000 C   0  0  0  0  0  0  0  0  0  0  0  0
   -0.3062   -0.5893    0.0000 C   0  0  0  0  0  0  0  0  0  0  0  0
    1.1227    1.0607    0.0000 O   0  0  0  0  0  0  0  0  0  0  0  0
   -0.3062    1.8857    0.0000 C   0  0  0  0  0  0  0  0  0  0  0  0
   -1.0207    2.2982    0.0000 C   0  0  0  0  0  0  0  0  0  0  0  0
   -1.7351    1.0607    0.0000 C   0  0  0  0  0  0  0  0  0  0  0  0
    4.6585   -0.4629    0.0000 C   0  0  0  0  0  0  0  0  0  0  0  0
    4.2460    0.2516    0.0000 C   0  0  0  0  0  0  0  0  0  0  0  0
    4.9604    0.6641    0.0000 C   0  0  0  0  0  0  0  0  0  0  0  0
    5.6749    0.2516    0.0000 C   0  0  0  0  0  0  0  0  0  0  0  0
    6.3894    0.6641    0.0000 O   0  0  0  0  0  0  0  0  0  0  0  0
    5.6749   -0.5734    0.0000 O   0  0  0  0  0  0  0  0  0  0  0  0
    3.8335    0.9660    0.0000 C   0  0  0  0  0  0  0  0  0  0  0  0
    3.0085    0.9660    0.0000 O   0  0  0  0  0  0  0  0  0  0  0  0
    4.2460    1.6805    0.0000 O   0  0  0  0  0  0  0  0  0  0  0  0
    3.5315   -0.1609    0.0000 O   0  0  0  0  0  0  0  0  0  0  0  0
    4.2460   -1.1774    0.0000 C   0  0  0  0  0  0  0  0  0  0  0  0
    4.6585   -1.8918    0.0000 O   0  0  0  0  0  0  0  0  0  0  0  0
    3.4210   -1.1774    0.0000 O   0  0  0  0  0  0  0  0  0  0  0  0
  1  2  1  0  0  0  0
  2  3  1  0  0  0  0
  3  4  1  0  0  0  0
  4  5  1  0  0  0  0
  5  6  1  0  0  0  0
  6  7  1  0  0  0  0
  7  8  1  0  0  0  0
  7  9  1  0  0  0  0
  9 10  1  0  0  0  0
  4 10  1  0  0  0  0
  3 11  2  0  0  0  0
  2 12  1  0  0  0  0
 12 13  1  0  0  0  0
  1 14  1  0  0  0  0
 15 16  1  0  0  0  0
 16 17  1  0  0  0  0
 17 18  1  0  0  0  0
 18 19  1  0  0  0  0
 18 20  2  0  0  0  0
 16 21  1  0  0  0  0
 21 22  1  0  0  0  0
 21 23  2  0  0  0  0
 16 24  1  0  0  0  0
 15 25  1  0  0  0  0
 25 26  1  0  0  0  0
 25 27  2  0  0  0  0
M  END
>  <Name>
Diethylcarbamazine citrate

>  <CAS>
1642-54-2

>  <Formula>
C10H21N3O.C6H8O7

>  <MolWt>
391.42 

>  <Bioactivity>
An anthelmintic used primarily as the citrate in the treatment of filariasis, particularly infestations with Wucheria bancrofti or Loa loa. 

>  <Pathways>
Neuroscience

>  <Target>
COX inhibitor

>  <Receptor>
ALOX5;Prostaglandin G/H synthase 1 Prostaglandin G/H synthase 1

>  <Reference>
1. Bach MK, Brashler JR. Biochem Pharmacol. 1986 Feb 1;35(3):425-33.

$$$$
T1438
  Mrv1561503291623562D          

 29 30  0  0  0  0            999 V2000
   -2.6936    1.0848    0.0000 C   0  0  0  0  0  0  0  0  0  0  0  0
   -1.9792    0.6723    0.0000 C   0  0  0  0  0  0  0  0  0  0  0  0
   -1.2647    1.0848    0.0000 Cl  0  0  0  0  0  0  0  0  0  0  0  0
   -1.9792   -0.1527    0.0000 C   0  0  0  0  0  0  0  0  0  0  0  0
   -2.6936   -0.5652    0.0000 C   0  0  0  0  0  0  0  0  0  0  0  0
   -2.6936   -1.3902    0.0000 Cl  0  0  0  0  0  0  0  0  0  0  0  0
   -3.4081   -0.1527    0.0000 C   0  0  0  0  0  0  0  0  0  0  0  0
   -3.4081    0.6723    0.0000 C   0  0  0  0  0  0  0  0  0  0  0  0
   -1.2647   -0.5652    0.0000 S   0  0  0  0  0  0  0  0  0  0  0  0
   -0.5502   -0.1527    0.0000 C   0  0  0  0  0  0  0  0  0  0  0  0
   -0.5502    0.6723    0.0000 C   0  0  0  0  0  0  0  0  0  0  0  0
    0.1642    1.0848    0.0000 N   0  0  0  0  0  0  0  0  0  0  0  0
    0.2505    1.9053    0.0000 C   0  0  0  0  0  0  0  0  0  0  0  0
    1.0574    2.0768    0.0000 N   0  0  0  0  0  0  0  0  0  0  0  0
    1.4699    1.3624    0.0000 C   0  0  0  0  0  0  0  0  0  0  0  0
    0.9179    0.7493    0.0000 C   0  0  0  0  0  0  0  0  0  0  0  0
    0.1642   -0.5652    0.0000 C   0  0  0  0  0  0  0  0  0  0  0  0
    0.8787   -0.1527    0.0000 C   0  0  0  0  0  0  0  0  0  0  0  0
    1.5932   -0.5652    0.0000 C   0  0  0  0  0  0  0  0  0  0  0  0
    2.3076   -0.1527    0.0000 C   0  0  0  0  0  0  0  0  0  0  0  0
    3.0221   -0.5652    0.0000 C   0  0  0  0  0  0  0  0  0  0  0  0
    3.0221   -1.3902    0.0000 C   0  0  0  0  0  0  0  0  0  0  0  0
    3.7366   -1.8027    0.0000 Cl  0  0  0  0  0  0  0  0  0  0  0  0
    2.3076   -1.8027    0.0000 C   0  0  0  0  0  0  0  0  0  0  0  0
    1.5932   -1.3902    0.0000 C   0  0  0  0  0  0  0  0  0  0  0  0
    6.8598    0.7145    0.0000 O   0  0  0  0  0  0  0  0  0  0  0  0
    6.4473   -0.0000    0.0000 N   0  3  0  0  0  0  0  0  0  0  0  0
    6.8598   -0.7145    0.0000 O   0  5  0  0  0  0  0  0  0  0  0  0
    5.6223   -0.0000    0.0000 O   0  0  0  0  0  0  0  0  0  0  0  0
  1  2  2  0  0  0  0
  2  3  1  0  0  0  0
  2  4  1  0  0  0  0
  4  5  2  0  0  0  0
  5  6  1  0  0  0  0
  5  7  1  0  0  0  0
  7  8  2  0  0  0  0
  1  8  1  0  0  0  0
  4  9  1  0  0  0  0
  9 10  1  0  0  0  0
 10 11  1  0  0  0  0
 11 12  1  0  0  0  0
 12 13  1  0  0  0  0
 13 14  2  0  0  0  0
 14 15  1  0  0  0  0
 15 16  2  0  0  0  0
 12 16  1  0  0  0  0
 10 17  1  0  0  0  0
 17 18  1  0  0  0  0
 18 19  1  0  0  0  0
 19 20  2  0  0  0  0
 20 21  1  0  0  0  0
 21 22  2  0  0  0  0
 22 23  1  0  0  0  0
 22 24  1  0  0  0  0
 24 25  2  0  0  0  0
 19 25  1  0  0  0  0
 26 27  2  0  0  0  0
 27 28  1  0  0  0  0
 27 29  1  0  0  0  0
M  CHG  2  27   1  28  -1
M  END
>  <Name>
Butoconazole nitrate

>  <CAS>
64872-77-1

>  <Formula>
C19H18Cl3N3O3S

>  <MolWt>
474.79 

>  <Bioactivity>
Butoconazole is an imidazole antifungal used in gynecology.

>  <Pathways>
Microbiology & Virology

>  <Target>
Antifungal

>  <Receptor>
Ergosterol

>  <Reference>
1. Pfaller MA, et al. Diagn Microbiol Infect Dis. 1990 Jan-Feb;13(1):31-5.

$$$$
2066-89-9
  Mrv1561503291623562D          

 21 21  0  0  0  0            999 V2000
    0.8444   -0.0375    0.0000 C   0  0  0  0  0  0  0  0  0  0  0  0
    0.8444   -0.8625    0.0000 C   0  0  0  0  0  0  0  0  0  0  0  0
    0.1299   -1.2750    0.0000 C   0  0  0  0  0  0  0  0  0  0  0  0
   -0.5846   -0.8625    0.0000 C   0  0  0  0  0  0  0  0  0  0  0  0
   -0.5846   -0.0375    0.0000 C   0  0  0  0  0  0  0  0  0  0  0  0
    0.1299    0.3750    0.0000 C   0  0  0  0  0  0  0  0  0  0  0  0
    0.1299    1.2000    0.0000 C   0  0  0  0  0  0  0  0  0  0  0  0
   -0.5846    1.6125    0.0000 O   0  0  0  0  0  0  0  0  0  0  0  0
    0.8444    1.6125    0.0000 O   0  0  0  0  0  0  0  0  0  0  0  0
   -1.2990    0.3750    0.0000 O   0  0  0  0  0  0  0  0  0  0  0  0
    0.1299   -2.1000    0.0000 N   0  0  0  0  0  0  0  0  0  0  0  0
    4.1590   -0.4538    0.0000 C   0  0  0  0  0  0  0  0  0  0  0  0
    4.1590   -1.2787    0.0000 C   0  0  0  0  0  0  0  0  0  0  0  0
    3.4446   -1.6912    0.0000 N   0  0  0  0  0  0  0  0  0  0  0  0
    2.7301   -1.2787    0.0000 C   0  0  0  0  0  0  0  0  0  0  0  0
    2.7301   -0.4537    0.0000 C   0  0  0  0  0  0  0  0  0  0  0  0
    3.4446   -0.0413    0.0000 C   0  0  0  0  0  0  0  0  0  0  0  0
    3.4446    0.7838    0.0000 C   0  0  0  0  0  0  0  0  0  0  0  0
    4.1590    1.1962    0.0000 N   0  0  0  0  0  0  0  0  0  0  0  0
    4.1590    2.0212    0.0000 N   0  0  0  0  0  0  0  0  0  0  0  0
    2.7301    1.1963    0.0000 O   0  0  0  0  0  0  0  0  0  0  0  0
  1  2  2  0  0  0  0
  2  3  1  0  0  0  0
  3  4  2  0  0  0  0
  4  5  1  0  0  0  0
  5  6  2  0  0  0  0
  1  6  1  0  0  0  0
  6  7  1  0  0  0  0
  7  8  1  0  0  0  0
  7  9  2  0  0  0  0
  5 10  1  0  0  0  0
  3 11  1  0  0  0  0
 12 13  2  0  0  0  0
 13 14  1  0  0  0  0
 14 15  2  0  0  0  0
 15 16  1  0  0  0  0
 16 17  2  0  0  0  0
 12 17  1  0  0  0  0
 17 18  1  0  0  0  0
 18 19  1  0  0  0  0
 19 20  1  0  0  0  0
 18 21  2  0  0  0  0
M  END
>  <Name>
Pasiniazid

>  <CAS>
2066-89-9

>  <Formula>
C13H14N4O4

>  <MolWt>
290.28 

>  <Bioactivity>
synthesis by conbination of isoniazid and p-aminosalicylic acid

>  <Pathways>
Neuroscience

>  <Target>
NADPH;COX inhibitor

>  <Receptor>
CP;NADPH;Prostaglandin G/H synthase

>  <Reference>
1. Pym AS, et al. Mol Microbiol. 2001 May;40(4):879-89. 

$$$$
1070-11-7
  Mrv1561503291623562D          

 18 13  0  0  1  0            999 V2000
    1.7553   -0.3898    0.0000 C   0  0  0  0  0  0  0  0  0  0  0  0
    0.9452   -0.5457    0.0000 N   0  0  0  0  0  0  0  0  0  0  0  0
    0.4051    0.0780    0.0000 C   0  0  0  0  0  0  0  0  0  0  0  0
   -0.4051   -0.0780    0.0000 C   0  0  0  0  0  0  0  0  0  0  0  0
   -0.9452    0.5457    0.0000 N   0  0  0  0  0  0  0  0  0  0  0  0
   -1.7553    0.3898    0.0000 C   0  0  0  0  0  0  0  0  0  0  0  0
   -2.2954    1.0134    0.0000 C   0  0  0  0  0  0  0  0  0  0  0  0
   -3.1055    0.8575    0.0000 C   0  0  0  0  0  0  0  0  0  0  0  0
   -2.0253   -0.3898    0.0000 C   0  0  0  0  0  0  0  0  0  0  0  0
   -2.8355   -0.5457    0.0000 O   0  0  0  0  0  0  0  0  0  0  0  0
    2.2954   -1.0134    0.0000 C   0  0  0  0  0  0  0  0  0  0  0  0
    3.1055   -0.8575    0.0000 C   0  0  0  0  0  0  0  0  0  0  0  0
    2.0253    0.3898    0.0000 C   0  0  0  0  0  0  0  0  0  0  0  0
    2.8355    0.5457    0.0000 O   0  0  0  0  0  0  0  0  0  0  0  0
    6.2877    0.0000    0.0000 H   0  3  0  0  0  0  0  0  0  0  0  0
    0.4125   -2.6634    0.0000 H   0  3  0  0  0  0  0  0  0  0  0  0
    5.4627    0.0000    0.0000 Cl  0  5  0  0  0  0  0  0  0  0  0  0
   -0.4125   -2.6634    0.0000 Cl  0  5  0  0  0  0  0  0  0  0  0  0
  1  2  1  0  0  0  0
  2  3  1  0  0  0  0
  3  4  1  0  0  0  0
  4  5  1  0  0  0  0
  5  6  1  0  0  0  0
  6  7  1  0  0  0  0
  7  8  1  0  0  0  0
  6  9  1  0  0  0  0
  9 10  1  0  0  0  0
  1 11  1  0  0  0  0
 11 12  1  0  0  0  0
  1 13  1  0  0  0  0
 13 14  1  0  0  0  0
M  CHG  4  15   1  16   1  17  -1  18  -1
M  END
>  <Name>
Ethambutol 2HCl

>  <CAS>
1070-11-7

>  <Formula>
C10H26Cl2N2O2

>  <MolWt>
277.24 

>  <Bioactivity>
Nocodazole is an inhibitor of microtubule polymerization which inhibits insulin-stimulated glucose transport. It impairs the morphology and directionality of migrating medial gan-glionic eminence cells and disrupts microtubules by binding to ?-tubulin. Nocodazole also prevents the formation of one of the two interchain disulfide linkages and impairs the transport of vesicles.

>  <Pathways>
Others

>  <Target>
Others

>  <Receptor>
arabinosyl transferase

>  <Reference>
1. Tuberculosis (Edinb), 2008, 88(2), 102-105.

$$$$
T0908
  Mrv1561503291623562D          

 14 15  0  0  0  0            999 V2000
    0.0000   -1.6500    0.0000 C   0  0  0  0  0  0  0  0  0  0  0  0
    0.7145   -1.2375    0.0000 C   0  0  0  0  0  0  0  0  0  0  0  0
    0.7145   -0.4125    0.0000 C   0  0  0  0  0  0  0  0  0  0  0  0
   -0.0000    0.0000    0.0000 N   0  0  0  0  0  0  0  0  0  0  0  0
   -0.7145   -0.4125    0.0000 C   0  0  0  0  0  0  0  0  0  0  0  0
   -0.7145   -1.2375    0.0000 C   0  0  0  0  0  0  0  0  0  0  0  0
   -1.4289   -0.0000    0.0000 C   0  0  0  0  0  0  0  0  0  0  0  0
    1.4289    0.0000    0.0000 C   0  0  0  0  0  0  0  0  0  0  0  0
    2.1434   -0.4125    0.0000 C   0  0  0  0  0  0  0  0  0  0  0  0
    2.8579    0.0000    0.0000 Cl  0  0  0  0  0  0  0  0  0  0  0  0
    2.1434   -1.2375    0.0000 C   0  0  0  0  0  0  0  0  0  0  0  0
    1.4289   -1.6500    0.0000 C   0  0  0  0  0  0  0  0  0  0  0  0
    1.4289   -2.4750    0.0000 Cl  0  0  0  0  0  0  0  0  0  0  0  0
    1.4289    0.8250    0.0000 O   0  0  0  0  0  0  0  0  0  0  0  0
  1  2  2  0  0  0  0
  2  3  1  0  0  0  0
  3  4  2  0  0  0  0
  4  5  1  0  0  0  0
  5  6  2  0  0  0  0
  1  6  1  0  0  0  0
  5  7  1  0  0  0  0
  3  8  1  0  0  0  0
  8  9  2  0  0  0  0
  9 10  1  0  0  0  0
  9 11  1  0  0  0  0
 11 12  2  0  0  0  0
  2 12  1  0  0  0  0
 12 13  1  0  0  0  0
  8 14  1  0  0  0  0
M  END
>  <Name>
Chloquinan

>  <CAS>
72-80-0

>  <Formula>
C10H7Cl2NO

>  <MolWt>
228.07 

>  <Bioactivity>
Local anti-infective agent used for skin, gastrointestinal, and vaginal infections with fungi, protozoa, and certain bacteria. In animals, it causes central nervous system damage and is not administered parenterally. It is also used as antiseptic, fungistat, or deodorant. 

>  <Pathways>
Microbiology & Virology

>  <Target>
Antibiotic

>  <Receptor>
Others

>  <Reference>
1. Corrihons I, et al. Pathol Biol (Paris), 1991, 39(2), 136-139.

$$$$
298-46-4
  Mrv1561503291623562D          

 18 20  0  0  0  0            999 V2000
    4.0859    1.1398    0.0000 C   0  0  0  0  0  0  0  0  0  0  0  0
    4.8742    1.3830    0.0000 C   0  0  0  0  0  0  0  0  0  0  0  0
    5.0578    2.1873    0.0000 C   0  0  0  0  0  0  0  0  0  0  0  0
    4.4530    2.7485    0.0000 C   0  0  0  0  0  0  0  0  0  0  0  0
    3.6647    2.5053    0.0000 C   0  0  0  0  0  0  0  0  0  0  0  0
    3.4811    1.7010    0.0000 C   0  0  0  0  0  0  0  0  0  0  0  0
    2.7378    1.3430    0.0000 N   0  0  0  0  0  0  0  0  0  0  0  0
    1.9945    1.7010    0.0000 C   0  0  0  0  0  0  0  0  0  0  0  0
    1.8109    2.5053    0.0000 C   0  0  0  0  0  0  0  0  0  0  0  0
    1.0226    2.7485    0.0000 C   0  0  0  0  0  0  0  0  0  0  0  0
    0.4178    2.1873    0.0000 C   0  0  0  0  0  0  0  0  0  0  0  0
    0.6014    1.3830    0.0000 C   0  0  0  0  0  0  0  0  0  0  0  0
    1.3897    1.1398    0.0000 C   0  0  0  0  0  0  0  0  0  0  0  0
    2.3253    3.1503    0.0000 C   0  0  0  0  0  0  0  0  0  0  0  0
    3.1503    3.1503    0.0000 C   0  0  0  0  0  0  0  0  0  0  0  0
    2.7378    0.5180    0.0000 C   0  0  0  0  0  0  0  0  0  0  0  0
    2.0233    0.1055    0.0000 N   0  0  0  0  0  0  0  0  0  0  0  0
    3.4523    0.1055    0.0000 O   0  0  0  0  0  0  0  0  0  0  0  0
  1  2  2  0  0  0  0
  2  3  1  0  0  0  0
  3  4  2  0  0  0  0
  4  5  1  0  0  0  0
  5  6  2  0  0  0  0
  1  6  1  0  0  0  0
  6  7  1  0  0  0  0
  7  8  1  0  0  0  0
  8  9  2  0  0  0  0
  9 10  1  0  0  0  0
 10 11  2  0  0  0  0
 11 12  1  0  0  0  0
 12 13  2  0  0  0  0
  8 13  1  0  0  0  0
  9 14  1  0  0  0  0
 14 15  2  0  0  0  0
  5 15  1  0  0  0  0
  7 16  1  0  0  0  0
 16 17  1  0  0  0  0
 16 18  2  0  0  0  0
M  END
>  <Name>
Carbamazepine

>  <CAS>
298-46-4

>  <Formula>
C15H12N2O

>  <MolWt>
236.27 

>  <Bioactivity>
An anticonvulsant used to control grand mal and psychomotor or focal seizures. Its mode of action is not fully understood, but some of its actions resemble those of PHENYTOIN; although there is little chemical resemblance between the two compounds, their three-dimensional structure is similar. 

>  <Pathways>
Membrane Transporter/Ion Channel

>  <Target>
Sodium Channel inhibitor

>  <Receptor>
Sodium Channel

>  <Reference>
1. Willow M, et al. Mol Pharmacol, 1982, 22(3), 627-635.

$$$$
485-71-2
  Mrv1561503291623562D          

 22 25  0  0  0  0            999 V2000
   -0.6183   -3.5459    0.0000 C   0  0  0  0  0  0  0  0  0  0  0  0
   -0.6183   -2.7209    0.0000 C   0  0  0  0  0  0  0  0  0  0  0  0
    0.0962   -2.3084    0.0000 C   0  0  0  0  0  0  0  0  0  0  0  0
    0.8106   -2.7209    0.0000 C   0  0  0  0  0  0  0  0  0  0  0  0
    1.5251   -2.3084    0.0000 N   0  0  0  0  0  0  0  0  0  0  0  0
    2.2396   -2.7209    0.0000 C   0  0  0  0  0  0  0  0  0  0  0  0
    2.2396   -3.5459    0.0000 C   0  0  0  0  0  0  0  0  0  0  0  0
    2.9540   -3.9584    0.0000 C   0  0  0  0  0  0  0  0  0  0  0  0
    2.9540   -4.7834    0.0000 C   0  0  0  0  0  0  0  0  0  0  0  0
    1.5251   -3.9584    0.0000 C   0  0  0  0  0  0  0  0  0  0  0  0
    0.8106   -3.5459    0.0000 C   0  0  0  0  0  0  0  0  0  0  0  0
    1.6626   -3.4084    0.0000 C   0  0  0  0  0  0  0  0  0  0  0  0
    1.6626   -2.8584    0.0000 C   0  0  0  0  0  0  0  0  0  0  0  0
    0.0962   -1.4834    0.0000 O   0  0  0  0  0  0  0  0  0  0  0  0
   -1.3328   -2.3084    0.0000 C   0  0  0  0  0  0  0  0  0  0  0  0
   -2.0473   -2.7209    0.0000 C   0  0  0  0  0  0  0  0  0  0  0  0
   -2.0473   -3.5459    0.0000 N   0  0  0  0  0  0  0  0  0  0  0  0
   -1.3328   -3.9584    0.0000 C   0  0  0  0  0  0  0  0  0  0  0  0
   -2.7617   -2.3084    0.0000 C   0  0  0  0  0  0  0  0  0  0  0  0
   -2.7617   -1.4834    0.0000 C   0  0  0  0  0  0  0  0  0  0  0  0
   -2.0473   -1.0709    0.0000 C   0  0  0  0  0  0  0  0  0  0  0  0
   -1.3328   -1.4834    0.0000 C   0  0  0  0  0  0  0  0  0  0  0  0
  1  2  2  0  0  0  0
  2  3  1  0  0  0  0
  3  4  1  0  0  0  0
  4  5  1  0  0  0  0
  5  6  1  0  0  0  0
  6  7  1  0  0  0  0
  7  8  1  0  0  0  0
  8  9  2  0  0  0  0
  7 10  1  0  0  0  0
 10 11  1  0  0  0  0
  4 11  1  0  0  0  0
 10 12  1  0  0  0  0
 12 13  1  0  0  0  0
  5 13  1  0  0  0  0
  3 14  1  0  0  0  0
  2 15  1  0  0  0  0
 15 16  2  0  0  0  0
 16 17  1  0  0  0  0
 17 18  2  0  0  0  0
  1 18  1  0  0  0  0
 16 19  1  0  0  0  0
 19 20  2  0  0  0  0
 20 21  1  0  0  0  0
 21 22  2  0  0  0  0
 15 22  1  0  0  0  0
M  END
>  <Name>
Cinchonidine

>  <CAS>
485-71-2

>  <Formula>
C19H22N2O

>  <MolWt>
294.39 

>  <Bioactivity>
Cinchonidine is an alkaloid found in Cinchona officinalis. It is used in asymmetric synthesis in organic chemistry. It is a stereoisomer and pseudo-enantiomer of cinchonine.

>  <Pathways>
Others

>  <Target>
Others

>  <Receptor>
Others

>  <Reference>
1. Fukiya K, et al. Drug Metab Dispos. 2010 Feb; 38(2):302-7. 

$$$$
T0754
  Mrv1561503291623562D          

 17 18  0  0  0  0            999 V2000
    5.6091    3.1152    0.0000 C   0  0  0  0  0  0  0  0  0  0  0  0
    6.3235    3.5277    0.0000 C   0  0  0  0  0  0  0  0  0  0  0  0
    7.0380    3.1152    0.0000 C   0  0  0  0  0  0  0  0  0  0  0  0
    7.0380    2.2902    0.0000 C   0  0  0  0  0  0  0  0  0  0  0  0
    6.3235    1.8777    0.0000 C   0  0  0  0  0  0  0  0  0  0  0  0
    5.6091    2.2902    0.0000 C   0  0  0  0  0  0  0  0  0  0  0  0
    4.8946    1.8777    0.0000 S   0  0  0  0  0  0  0  0  0  0  0  0
    4.1801    1.4652    0.0000 N   0  0  0  0  0  0  0  0  0  0  0  0
    4.1801    0.6402    0.0000 C   0  0  0  0  0  0  0  0  0  0  0  0
    4.8476    0.1553    0.0000 N   0  0  0  0  0  0  0  0  0  0  0  0
    4.5926   -0.6294    0.0000 N   0  0  0  0  0  0  0  0  0  0  0  0
    3.7676   -0.6294    0.0000 C   0  0  0  0  0  0  0  0  0  0  0  0
    3.5127    0.1553    0.0000 S   0  0  0  0  0  0  0  0  0  0  0  0
    3.2827   -1.2968    0.0000 C   0  0  0  0  0  0  0  0  0  0  0  0
    5.3071    1.1632    0.0000 O   0  0  0  0  0  0  0  0  0  0  0  0
    4.4821    2.5922    0.0000 O   0  0  0  0  0  0  0  0  0  0  0  0
    7.7525    3.5277    0.0000 N   0  0  0  0  0  0  0  0  0  0  0  0
  1  2  2  0  0  0  0
  2  3  1  0  0  0  0
  3  4  2  0  0  0  0
  4  5  1  0  0  0  0
  5  6  2  0  0  0  0
  1  6  1  0  0  0  0
  6  7  1  0  0  0  0
  7  8  1  0  0  0  0
  8  9  1  0  0  0  0
  9 10  2  0  0  0  0
 10 11  1  0  0  0  0
 11 12  2  0  0  0  0
 12 13  1  0  0  0  0
  9 13  1  0  0  0  0
 12 14  1  0  0  0  0
  7 15  2  0  0  0  0
  7 16  2  0  0  0  0
  3 17  1  0  0  0  0
M  END
>  <Name>
Sulfamethizole

>  <CAS>
144-82-1

>  <Formula>
C9H10N4O2S2

>  <MolWt>
270.33 

>  <Bioactivity>
Sulfamethizole is a sulfathiazole antibacterial agent.

>  <Pathways>
Microbiology & Virology

>  <Target>
Antibiotic;DHPS inhibitor

>  <Receptor>
DHPS

>  <Reference>
1. Watanabe H, Hastings JW. Biochim Biophys Acta. 1990 Jun 26;1017(3):229-34. 

$$$$
10017-44-4
  Mrv1561503291623562D          

 12 10  0  0  1  0            999 V2000
    0.0750   -0.1299    0.0000 C   0  0  2  0  0  0  0  0  0  0  0  0
   -0.7500   -0.1299    0.0000 O   0  0  0  0  0  0  0  0  0  0  0  0
    0.4875    0.5846    0.0000 C   0  0  0  0  0  0  0  0  0  0  0  0
    0.0750    1.2990    0.0000 N   0  3  0  0  0  0  0  0  0  0  0  0
   -0.3375    2.0135    0.0000 C   0  0  0  0  0  0  0  0  0  0  0  0
   -0.6395    0.8865    0.0000 C   0  0  0  0  0  0  0  0  0  0  0  0
    0.7895    1.7115    0.0000 C   0  0  0  0  0  0  0  0  0  0  0  0
    0.4875   -0.8444    0.0000 C   0  0  0  0  0  0  0  0  0  0  0  0
    0.0750   -1.5588    0.0000 C   0  0  0  0  0  0  0  0  0  0  0  0
    0.4875   -2.2733    0.0000 O   0  0  0  0  0  0  0  0  0  0  0  0
   -0.7500   -1.5588    0.0000 O   0  0  0  0  0  0  0  0  0  0  0  0
    3.1466    0.0000    0.0000 Cl  0  5  0  0  0  0  0  0  0  0  0  0
  1  2  1  6  0  0  0
  1  3  1  0  0  0  0
  3  4  1  0  0  0  0
  4  5  1  0  0  0  0
  4  6  1  0  0  0  0
  4  7  1  0  0  0  0
  1  8  1  0  0  0  0
  8  9  1  0  0  0  0
  9 10  1  0  0  0  0
  9 11  2  0  0  0  0
M  CHG  2   4   1  12  -1
M  END
>  <Name>
L-Carnitine HCl

>  <CAS>
10017-44-4

>  <Formula>
C7H15NO3HCl

>  <MolWt>
197.66 

>  <Bioactivity>
Constituent of striated muscle and liver. It is used therapeutically to stimulate gastric and pancreatic secretions and in the treatment of hyperlipoproteinemias. 

>  <Pathways>
Metabolism

>  <Target>
CART

>  <Receptor>
CRAT

>  <Reference>
1. Merra G, et al. World J Gastroenterol. 2012 Sep 28;18(36):5065-71. 

$$$$
4961-41-5
  Mrv1561503291623562D          

 18 12  0  0  0  0            999 V2000
   -3.5724    0.2221    0.0000 C   0  0  0  0  0  0  0  0  0  0  0  0
   -2.8579   -0.1904    0.0000 C   0  0  0  0  0  0  0  0  0  0  0  0
   -2.1434    0.2221    0.0000 N   0  0  0  0  0  0  0  0  0  0  0  0
   -1.4289   -0.1904    0.0000 C   0  0  0  0  0  0  0  0  0  0  0  0
   -0.7145    0.2221    0.0000 C   0  0  0  0  0  0  0  0  0  0  0  0
    0.0000   -0.1904    0.0000 N   0  0  0  0  0  0  0  0  0  0  0  0
    0.7145    0.2221    0.0000 C   0  0  0  0  0  0  0  0  0  0  0  0
    1.4289   -0.1904    0.0000 C   0  0  0  0  0  0  0  0  0  0  0  0
    2.1434    0.2221    0.0000 N   0  0  0  0  0  0  0  0  0  0  0  0
    2.8579   -0.1904    0.0000 C   0  0  0  0  0  0  0  0  0  0  0  0
    3.5724    0.2221    0.0000 C   0  0  0  0  0  0  0  0  0  0  0  0
    4.2868   -0.1904    0.0000 N   0  0  0  0  0  0  0  0  0  0  0  0
   -4.2868   -0.1904    0.0000 N   0  0  0  0  0  0  0  0  0  0  0  0
    6.2904    0.0000    0.0000 Cl  0  0  0  0  0  0  0  0  0  0  0  0
    8.2940    0.0000    0.0000 Cl  0  0  0  0  0  0  0  0  0  0  0  0
    0.0000   -1.8404    0.0000 Cl  0  0  0  0  0  0  0  0  0  0  0  0
    2.0036   -1.8404    0.0000 Cl  0  0  0  0  0  0  0  0  0  0  0  0
    4.0071   -1.8404    0.0000 Cl  0  0  0  0  0  0  0  0  0  0  0  0
  1  2  1  0  0  0  0
  2  3  1  0  0  0  0
  3  4  1  0  0  0  0
  4  5  1  0  0  0  0
  5  6  1  0  0  0  0
  6  7  1  0  0  0  0
  7  8  1  0  0  0  0
  8  9  1  0  0  0  0
  9 10  1  0  0  0  0
 10 11  1  0  0  0  0
 11 12  1  0  0  0  0
  1 13  1  0  0  0  0
M  END
>  <Name>
Tetraethylenepentamine Pentahydrochloride

>  <CAS>
4961-41-5

>  <Formula>
C8H23N5·5HCl

>  <MolWt>
371.61 

>  <Bioactivity>
Used in synthetic resin, also used as additive, curing agent, promoter, etc

>  <Pathways>
Others

>  <Target>
Chelator

>  <Receptor>
iron

>  <Reference>
1. Wilfong WC, et al. ACS Appl Mater Interfaces. 2014 Aug 27;6(16):13617-26.

$$$$
112111-43-0
  Mrv1561503291623562D          

 19 20  0  0  0  0            999 V2000
   -0.0000    0.0000    0.0000 C   0  0  0  0  0  0  0  0  0  0  0  0
   -0.7145   -0.4125    0.0000 C   0  0  0  0  0  0  0  0  0  0  0  0
   -0.7145   -1.2375    0.0000 C   0  0  0  0  0  0  0  0  0  0  0  0
   -1.4289   -1.6500    0.0000 C   0  0  0  0  0  0  0  0  0  0  0  0
   -1.4289   -2.4750    0.0000 C   0  0  0  0  0  0  0  0  0  0  0  0
   -2.1434   -2.8875    0.0000 C   0  0  0  0  0  0  0  0  0  0  0  0
   -2.8579   -2.4750    0.0000 C   0  0  0  0  0  0  0  0  0  0  0  0
   -2.8579   -1.6500    0.0000 C   0  0  0  0  0  0  0  0  0  0  0  0
   -2.1434   -1.2375    0.0000 C   0  0  0  0  0  0  0  0  0  0  0  0
   -0.0000   -1.6500    0.0000 S   0  0  0  0  0  0  0  0  0  0  0  0
    0.7145   -1.2375    0.0000 C   0  0  0  0  0  0  0  0  0  0  0  0
    1.4289   -1.6500    0.0000 C   0  0  0  0  0  0  0  0  0  0  0  0
    2.1434   -1.2375    0.0000 N   0  0  0  0  0  0  0  0  0  0  0  0
    1.4289   -2.4750    0.0000 O   0  0  0  0  0  0  0  0  0  0  0  0
   -0.0000   -2.4750    0.0000 O   0  0  0  0  0  0  0  0  0  0  0  0
   -1.4289   -0.0000    0.0000 C   0  0  0  0  0  0  0  0  0  0  0  0
   -1.4289    0.8250    0.0000 C   0  0  0  0  0  0  0  0  0  0  0  0
   -0.7145    1.2375    0.0000 C   0  0  0  0  0  0  0  0  0  0  0  0
   -0.0000    0.8250    0.0000 C   0  0  0  0  0  0  0  0  0  0  0  0
  1  2  2  0  0  0  0
  2  3  1  0  0  0  0
  3  4  1  0  0  0  0
  4  5  2  0  0  0  0
  5  6  1  0  0  0  0
  6  7  2  0  0  0  0
  7  8  1  0  0  0  0
  8  9  2  0  0  0  0
  4  9  1  0  0  0  0
  3 10  1  0  0  0  0
 10 11  1  0  0  0  0
 11 12  1  0  0  0  0
 12 13  1  0  0  0  0
 12 14  2  0  0  0  0
 10 15  2  0  0  0  0
  2 16  1  0  0  0  0
 16 17  2  0  0  0  0
 17 18  1  0  0  0  0
 18 19  2  0  0  0  0
  1 19  1  0  0  0  0
M  END
>  <Name>
Armodafinil

>  <CAS>
112111-43-0

>  <Formula>
C15H15NO2S

>  <MolWt>
273.36 

>  <Bioactivity>
Modafinil is a stimulant drug marketed as a ‘wakefulness promoting agent’ and is one of the stimulants used in the treatment of narcolepsy. Narcolepsy is caused by dysfunction of a family of wakefulness-promoting and sleep-suppressing peptides, the orexins, whose neurons are activated by modafinil. The prexin neuron activation is associated with psychoactivation and euphoria. The exact mechanism of action is unclear, although in vitro studies have shown it to inhibit the reuptake of dopamine by binding to the dopamine reuptake pump, and lead to an increase in extracellular dopamine. Modafinil activates glutamatergic circuits while inhibiting GABA.

>  <Pathways>
Neuroscience

>  <Target>
Adrenergic Receptor antagonist;Dopamine uptake inhibitor

>  <Receptor>
?-adrenergic receptor; Sodium-dependent dopamine transporter

>  <Reference>
1. Zhou J, et al. J Med Chem. 2004 Nov 18; 47(24):5821-4.

$$$$
T1516
  Mrv1561503291623562D          

 27 28  0  0  0  0            999 V2000
    5.0013   -5.3625    0.0000 C   0  0  0  0  0  0  0  0  0  0  0  0
    5.0013   -6.1875    0.0000 C   0  0  0  0  0  0  0  0  0  0  0  0
    5.7158   -6.6000    0.0000 O   0  0  0  0  0  0  0  0  0  0  0  0
    5.7158   -7.4250    0.0000 C   0  0  0  0  0  0  0  0  0  0  0  0
    4.2868   -6.6000    0.0000 C   0  0  0  0  0  0  0  0  0  0  0  0
    3.5724   -6.1875    0.0000 C   0  0  0  0  0  0  0  0  0  0  0  0
    3.5724   -5.3625    0.0000 C   0  0  0  0  0  0  0  0  0  0  0  0
    4.2868   -4.9500    0.0000 C   0  0  0  0  0  0  0  0  0  0  0  0
    4.2868   -4.1250    0.0000 C   0  0  0  0  0  0  0  0  0  0  0  0
    5.0013   -3.7125    0.0000 C   0  0  0  0  0  0  0  0  0  0  0  0
    5.0013   -2.8875    0.0000 C   0  0  0  0  0  0  0  0  0  0  0  0
    4.2868   -2.4750    0.0000 O   0  0  0  0  0  0  0  0  0  0  0  0
    5.7158   -2.4750    0.0000 C   0  0  0  0  0  0  0  0  0  0  0  0
    5.7158   -1.6500    0.0000 C   0  0  0  0  0  0  0  0  0  0  0  0
    5.0013   -1.2375    0.0000 O   0  0  0  0  0  0  0  0  0  0  0  0
    6.4302   -1.2375    0.0000 C   0  0  0  0  0  0  0  0  0  0  0  0
    6.4302   -0.4125    0.0000 C   0  0  0  0  0  0  0  0  0  0  0  0
    7.1447   -0.0000    0.0000 C   0  0  0  0  0  0  0  0  0  0  0  0
    7.1447    0.8250    0.0000 C   0  0  0  0  0  0  0  0  0  0  0  0
    7.8592    1.2375    0.0000 C   0  0  0  0  0  0  0  0  0  0  0  0
    8.5737    0.8250    0.0000 C   0  0  0  0  0  0  0  0  0  0  0  0
    9.2881    1.2375    0.0000 O   0  0  0  0  0  0  0  0  0  0  0  0
    8.5737   -0.0000    0.0000 C   0  0  0  0  0  0  0  0  0  0  0  0
    7.8592   -0.4125    0.0000 C   0  0  0  0  0  0  0  0  0  0  0  0
    7.8592    2.0625    0.0000 O   0  0  0  0  0  0  0  0  0  0  0  0
    8.5737    2.4750    0.0000 C   0  0  0  0  0  0  0  0  0  0  0  0
    4.2868   -7.4250    0.0000 O   0  0  0  0  0  0  0  0  0  0  0  0
  1  2  2  0  0  0  0
  2  3  1  0  0  0  0
  3  4  1  0  0  0  0
  2  5  1  0  0  0  0
  5  6  2  0  0  0  0
  6  7  1  0  0  0  0
  7  8  2  0  0  0  0
  1  8  1  0  0  0  0
  8  9  1  0  0  0  0
  9 10  2  0  0  0  0
 10 11  1  0  0  0  0
 11 12  1  0  0  0  0
 11 13  2  0  0  0  0
 13 14  1  0  0  0  0
 14 15  2  0  0  0  0
 14 16  1  0  0  0  0
 16 17  2  0  0  0  0
 17 18  1  0  0  0  0
 18 19  2  0  0  0  0
 19 20  1  0  0  0  0
 20 21  2  0  0  0  0
 21 22  1  0  0  0  0
 21 23  1  0  0  0  0
 23 24  2  0  0  0  0
 18 24  1  0  0  0  0
 20 25  1  0  0  0  0
 25 26  1  0  0  0  0
  5 27  1  0  0  0  0
M  END
>  <Name>
Curcumin

>  <CAS>
458-37-7

>  <Formula>
C21H20O6

>  <MolWt>
368.39 

>  <Bioactivity>
A yellow-orange dye obtained from tumeric, the powdered root of CURCUMA longa. It is used in the preparation of curcuma paper and the detection of boron. Curcumin appears to possess a spectrum of pharmacological properties, due primarily to its inhibitory effects on metabolic enzymes.

>  <Pathways>
Immunology/Inflammation

>  <Target>
NF-?B inhibitor

>  <Receptor>
KEAP1-Nrf2

>  <Reference>
1. Zanotto-Filho A, et al. Cancer Lett. 2015 Mar 28;358(2):220-31. 

$$$$
1415-73-2
  Mrv1561503291623562D          

 30 33  0  0  1  0            999 V2000
    2.1434   -0.4125    0.0000 C   0  0  1  0  0  0  0  0  0  0  0  0
    2.8579    0.0000    0.0000 C   0  0  0  0  0  0  0  0  0  0  0  0
    2.8579    0.8250    0.0000 C   0  0  0  0  0  0  0  0  0  0  0  0
    2.1434    1.2375    0.0000 C   0  0  0  0  0  0  0  0  0  0  0  0
    2.1434    2.0625    0.0000 O   0  0  0  0  0  0  0  0  0  0  0  0
    1.4289    0.8250    0.0000 C   0  0  0  0  0  0  0  0  0  0  0  0
    1.4289    0.0000    0.0000 C   0  0  0  0  0  0  0  0  0  0  0  0
    0.7145   -0.4125    0.0000 C   0  0  0  0  0  0  0  0  0  0  0  0
   -0.0000    0.0000    0.0000 C   0  0  0  0  0  0  0  0  0  0  0  0
   -0.0000    0.8250    0.0000 C   0  0  0  0  0  0  0  0  0  0  0  0
    0.7145    1.2375    0.0000 C   0  0  0  0  0  0  0  0  0  0  0  0
    0.7145    2.0625    0.0000 O   0  0  0  0  0  0  0  0  0  0  0  0
    3.5724    1.2375    0.0000 C   0  0  0  0  0  0  0  0  0  0  0  0
    4.2868    0.8250    0.0000 C   0  0  0  0  0  0  0  0  0  0  0  0
    4.2868   -0.0000    0.0000 C   0  0  0  0  0  0  0  0  0  0  0  0
    3.5724   -0.4125    0.0000 C   0  0  0  0  0  0  0  0  0  0  0  0
    5.0013   -0.4125    0.0000 C   0  0  0  0  0  0  0  0  0  0  0  0
    5.7158   -0.0000    0.0000 O   0  0  0  0  0  0  0  0  0  0  0  0
    3.5724    2.0625    0.0000 O   0  0  0  0  0  0  0  0  0  0  0  0
    2.1434   -1.2375    0.0000 C   0  0  2  0  0  0  0  0  0  0  0  0
    2.8579   -1.6500    0.0000 O   0  0  0  0  0  0  0  0  0  0  0  0
    2.8579   -2.4750    0.0000 C   0  0  1  0  0  0  0  0  0  0  0  0
    2.1434   -2.8875    0.0000 C   0  0  1  0  0  0  0  0  0  0  0  0
    2.1434   -3.7125    0.0000 O   0  0  0  0  0  0  0  0  0  0  0  0
    1.4289   -2.4750    0.0000 C   0  0  1  0  0  0  0  0  0  0  0  0
    1.4289   -1.6500    0.0000 C   0  0  1  0  0  0  0  0  0  0  0  0
    0.7145   -1.2375    0.0000 O   0  0  0  0  0  0  0  0  0  0  0  0
    0.7145   -2.8875    0.0000 O   0  0  0  0  0  0  0  0  0  0  0  0
    3.5724   -2.8875    0.0000 C   0  0  0  0  0  0  0  0  0  0  0  0
    3.5724   -3.7125    0.0000 O   0  0  0  0  0  0  0  0  0  0  0  0
  1  2  1  0  0  0  0
  2  3  2  0  0  0  0
  3  4  1  0  0  0  0
  4  5  2  0  0  0  0
  4  6  1  0  0  0  0
  6  7  2  0  0  0  0
  1  7  1  0  0  0  0
  7  8  1  0  0  0  0
  8  9  2  0  0  0  0
  9 10  1  0  0  0  0
 10 11  2  0  0  0  0
  6 11  1  0  0  0  0
 11 12  1  0  0  0  0
  3 13  1  0  0  0  0
 13 14  2  0  0  0  0
 14 15  1  0  0  0  0
 15 16  2  0  0  0  0
  2 16  1  0  0  0  0
 15 17  1  0  0  0  0
 17 18  1  0  0  0  0
 13 19  1  0  0  0  0
  1 20  1  6  0  0  0
 20 21  1  6  0  0  0
 21 22  1  0  0  0  0
 22 23  1  0  0  0  0
 23 24  1  1  0  0  0
 23 25  1  0  0  0  0
 25 26  1  0  0  0  0
 20 26  1  0  0  0  0
 26 27  1  1  0  0  0
 25 28  1  6  0  0  0
 22 29  1  6  0  0  0
 29 30  1  0  0  0  0
M  END
>  <Name>
Aloin

>  <CAS>
1415-73-2

>  <Formula>
C21H22O9

>  <MolWt>
418.39 

>  <Bioactivity>
Aloin, a natural anthracycline from Aloe vera, is a tyrosinase inhibitor

>  <Pathways>
Others

>  <Target>
Others

>  <Receptor>
Others

>  <Reference>
1. Tan C, et al. Chin Med J (Engl), 2002, 115(12), 1859-1862.

$$$$
T0648
  Mrv1561503291623562D          

  8  8  0  0  0  0            999 V2000
    1.4289   -0.0000    0.0000 C   0  0  0  0  0  0  0  0  0  0  0  0
    0.7145   -0.4125    0.0000 C   0  0  0  0  0  0  0  0  0  0  0  0
    0.7145   -1.2375    0.0000 O   0  0  0  0  0  0  0  0  0  0  0  0
   -0.0000   -0.0000    0.0000 C   0  0  0  0  0  0  0  0  0  0  0  0
   -0.0000    0.8250    0.0000 C   0  0  0  0  0  0  0  0  0  0  0  0
    0.7145    1.2375    0.0000 C   0  0  0  0  0  0  0  0  0  0  0  0
    1.4289    0.8250    0.0000 C   0  0  0  0  0  0  0  0  0  0  0  0
    0.7145    2.0625    0.0000 N   0  0  0  0  0  0  0  0  0  0  0  0
  1  2  2  0  0  0  0
  2  3  1  0  0  0  0
  2  4  1  0  0  0  0
  4  5  2  0  0  0  0
  5  6  1  0  0  0  0
  6  7  2  0  0  0  0
  1  7  1  0  0  0  0
  6  8  1  0  0  0  0
M  END
>  <Name>
4-Aminophenol

>  <CAS>
123-30-8

>  <Formula>
C6H7NO

>  <MolWt>
109.13 

>  <Bioactivity>
4-Aminophenol (or para-aminophenol or p-aminophenol) is the organic compound with the formula H2NC6H4OH. Typically available as a white powder, it is commonly used as a developer in black-and-white film, marketed under the name Rodinal. 

>  <Pathways>
Immunology/Inflammation

>  <Target>
ROS inhibitor

>  <Receptor>
Free radical scavengers

>  <Reference>
1. Borges RS, et al. Chem Biol Drug Des. 2013 Mar;81(3):414-9.

$$$$
84-74-2
  Mrv1561503291623562D          

 20 20  0  0  0  0            999 V2000
   -1.4289    0.8250    0.0000 C   0  0  0  0  0  0  0  0  0  0  0  0
   -1.4289    0.0000    0.0000 C   0  0  0  0  0  0  0  0  0  0  0  0
   -2.1434   -0.4125    0.0000 C   0  0  0  0  0  0  0  0  0  0  0  0
   -2.8579    0.0000    0.0000 C   0  0  0  0  0  0  0  0  0  0  0  0
   -2.8579    0.8250    0.0000 C   0  0  0  0  0  0  0  0  0  0  0  0
   -2.1434    1.2375    0.0000 C   0  0  0  0  0  0  0  0  0  0  0  0
   -2.1434   -1.2375    0.0000 C   0  0  0  0  0  0  0  0  0  0  0  0
   -2.8579   -1.6500    0.0000 O   0  0  0  0  0  0  0  0  0  0  0  0
   -2.8579   -2.4750    0.0000 C   0  0  0  0  0  0  0  0  0  0  0  0
   -3.5724   -2.8875    0.0000 C   0  0  0  0  0  0  0  0  0  0  0  0
   -3.5724   -3.7125    0.0000 C   0  0  0  0  0  0  0  0  0  0  0  0
   -4.2868   -4.1250    0.0000 C   0  0  0  0  0  0  0  0  0  0  0  0
   -1.4289   -1.6500    0.0000 O   0  0  0  0  0  0  0  0  0  0  0  0
   -0.7145   -0.4125    0.0000 C   0  0  0  0  0  0  0  0  0  0  0  0
    0.0000    0.0000    0.0000 O   0  0  0  0  0  0  0  0  0  0  0  0
    0.7145   -0.4125    0.0000 C   0  0  0  0  0  0  0  0  0  0  0  0
    1.4289    0.0000    0.0000 C   0  0  0  0  0  0  0  0  0  0  0  0
    2.1434   -0.4125    0.0000 C   0  0  0  0  0  0  0  0  0  0  0  0
    2.8579    0.0000    0.0000 C   0  0  0  0  0  0  0  0  0  0  0  0
   -0.7145   -1.2375    0.0000 O   0  0  0  0  0  0  0  0  0  0  0  0
  1  2  2  0  0  0  0
  2  3  1  0  0  0  0
  3  4  2  0  0  0  0
  4  5  1  0  0  0  0
  5  6  2  0  0  0  0
  1  6  1  0  0  0  0
  3  7  1  0  0  0  0
  7  8  1  0  0  0  0
  8  9  1  0  0  0  0
  9 10  1  0  0  0  0
 10 11  1  0  0  0  0
 11 12  1  0  0  0  0
  7 13  2  0  0  0  0
  2 14  1  0  0  0  0
 14 15  1  0  0  0  0
 15 16  1  0  0  0  0
 16 17  1  0  0  0  0
 17 18  1  0  0  0  0
 18 19  1  0  0  0  0
 14 20  2  0  0  0  0
M  END
>  <Name>
Dibutyl phthalate

>  <CAS>
84-74-2

>  <Formula>
C16H22O4

>  <MolWt>
278.34 

>  <Bioactivity>
Dibutyl phthalate is a plasticizer used in most plastics and found in water, air, soil, plants and animals. It may have some adverse effects with long-term exposure.


>  <Pathways>
Others

>  <Target>
Others

>  <Receptor>
Others

>  <Reference>
1. Euling SY, et al. Toxicol Appl Pharmacol. 2013 Sep 15;271(3):324-35. 

$$$$
T0060
  Mrv1561503291623562D          

 95 96  0  0  1  0            999 V2000
   -0.1580   -1.5420    0.0000 C   0  0  2  0  0  0  0  0  0  0  0  0
    0.1776   -0.7883    0.0000 O   0  0  0  0  0  0  0  0  0  0  0  0
   -0.3074   -0.1209    0.0000 C   0  0  2  0  0  0  0  0  0  0  0  0
   -1.1324   -0.1209    0.0000 O   0  0  0  0  0  0  0  0  0  0  0  0
   -1.3873    0.6637    0.0000 C   0  0  2  0  0  0  0  0  0  0  0  0
   -0.7199    1.1487    0.0000 C   0  0  1  0  0  0  0  0  0  0  0  0
   -1.2719    1.7618    0.0000 O   0  0  0  0  0  0  0  0  0  0  0  0
   -0.0524    0.6637    0.0000 C   0  0  1  0  0  0  0  0  0  0  0  0
    0.7322    0.9187    0.0000 O   0  0  0  0  0  0  0  0  0  0  0  0
    0.9037    1.7257    0.0000 C   0  0  2  0  0  0  0  0  0  0  0  0
    0.2906    2.2777    0.0000 O   0  0  0  0  0  0  0  0  0  0  0  0
    0.4622    3.0847    0.0000 C   0  0  2  0  0  0  0  0  0  0  0  0
    1.2468    3.3396    0.0000 C   0  0  2  0  0  0  0  0  0  0  0  0
    1.4183    4.1466    0.0000 O   0  0  0  0  0  0  0  0  0  0  0  0
    1.8599    2.7876    0.0000 C   0  0  1  0  0  0  0  0  0  0  0  0
    2.6445    3.0425    0.0000 O   0  0  0  0  0  0  0  0  0  0  0  0
    1.6884    1.9806    0.0000 C   0  0  2  0  0  0  0  0  0  0  0  0
    2.3015    1.4286    0.0000 N   0  0  0  0  0  0  0  0  0  0  0  0
    2.1299    0.6216    0.0000 C   0  0  0  0  0  0  0  0  0  0  0  0
   -0.1509    3.6367    0.0000 C   0  0  0  0  0  0  0  0  0  0  0  0
    0.0206    4.4437    0.0000 O   0  0  0  0  0  0  0  0  0  0  0  0
   -0.1678    1.7618    0.0000 C   0  0  0  0  0  0  0  0  0  0  0  0
   -0.4228    2.5464    0.0000 O   0  0  0  0  0  0  0  0  0  0  0  0
   -2.1719    0.9187    0.0000 C   0  0  0  0  0  0  0  0  0  0  0  0
    0.3269   -2.2094    0.0000 C   0  0  1  0  0  0  0  0  0  0  0  0
    1.1474   -2.1232    0.0000 N   0  0  0  0  0  0  0  0  0  0  0  0
    1.4830   -1.3695    0.0000 C   0  0  0  0  0  0  0  0  0  0  0  0
    2.3035   -1.2833    0.0000 N   0  0  0  0  0  0  0  0  0  0  0  0
    0.9980   -0.7021    0.0000 N   0  0  0  0  0  0  0  0  0  0  0  0
   -0.0086   -2.9631    0.0000 C   0  0  2  0  0  0  0  0  0  0  0  0
    0.4763   -3.6305    0.0000 O   0  0  0  0  0  0  0  0  0  0  0  0
   -0.8291   -3.0493    0.0000 C   0  0  1  0  0  0  0  0  0  0  0  0
   -1.1647   -3.8030    0.0000 N   0  0  0  0  0  0  0  0  0  0  0  0
   -1.9851   -3.8893    0.0000 C   0  0  0  0  0  0  0  0  0  0  0  0
   -2.3207   -4.6429    0.0000 N   0  0  0  0  0  0  0  0  0  0  0  0
   -2.4701   -3.2218    0.0000 N   0  0  0  0  0  0  0  0  0  0  0  0
   -1.3140   -2.3819    0.0000 C   0  0  2  0  0  0  0  0  0  0  0  0
   -2.1345   -2.4681    0.0000 O   0  0  0  0  0  0  0  0  0  0  0  0
   -0.9785   -1.6282    0.0000 C   0  0  1  0  0  0  0  0  0  0  0  0
   -1.4634   -0.9608    0.0000 O   0  0  0  0  0  0  0  0  0  0  0  0
    7.3137   -1.5420    0.0000 C   0  0  2  0  0  0  0  0  0  0  0  0
    7.6493   -0.7883    0.0000 O   0  0  0  0  0  0  0  0  0  0  0  0
    7.1644   -0.1209    0.0000 C   0  0  2  0  0  0  0  0  0  0  0  0
    6.3394   -0.1209    0.0000 O   0  0  0  0  0  0  0  0  0  0  0  0
    6.0844    0.6637    0.0000 C   0  0  2  0  0  0  0  0  0  0  0  0
    6.7519    1.1487    0.0000 C   0  0  1  0  0  0  0  0  0  0  0  0
    6.1998    1.7618    0.0000 O   0  0  0  0  0  0  0  0  0  0  0  0
    7.4193    0.6637    0.0000 C   0  0  1  0  0  0  0  0  0  0  0  0
    8.2039    0.9187    0.0000 O   0  0  0  0  0  0  0  0  0  0  0  0
    8.3754    1.7257    0.0000 C   0  0  2  0  0  0  0  0  0  0  0  0
    7.7624    2.2777    0.0000 O   0  0  0  0  0  0  0  0  0  0  0  0
    7.9339    3.0847    0.0000 C   0  0  2  0  0  0  0  0  0  0  0  0
    8.7185    3.3396    0.0000 C   0  0  2  0  0  0  0  0  0  0  0  0
    8.8900    4.1466    0.0000 O   0  0  0  0  0  0  0  0  0  0  0  0
    9.3316    2.7876    0.0000 C   0  0  1  0  0  0  0  0  0  0  0  0
   10.1162    3.0425    0.0000 O   0  0  0  0  0  0  0  0  0  0  0  0
    9.1601    1.9806    0.0000 C   0  0  2  0  0  0  0  0  0  0  0  0
    9.7732    1.4286    0.0000 N   0  0  0  0  0  0  0  0  0  0  0  0
    9.6016    0.6216    0.0000 C   0  0  0  0  0  0  0  0  0  0  0  0
    7.3208    3.6367    0.0000 C   0  0  0  0  0  0  0  0  0  0  0  0
    7.4923    4.4437    0.0000 O   0  0  0  0  0  0  0  0  0  0  0  0
    7.3039    1.7618    0.0000 C   0  0  0  0  0  0  0  0  0  0  0  0
    7.0490    2.5464    0.0000 O   0  0  0  0  0  0  0  0  0  0  0  0
    5.2998    0.9187    0.0000 C   0  0  0  0  0  0  0  0  0  0  0  0
    7.7986   -2.2094    0.0000 C   0  0  1  0  0  0  0  0  0  0  0  0
    8.6191   -2.1232    0.0000 N   0  0  0  0  0  0  0  0  0  0  0  0
    8.9547   -1.3695    0.0000 C   0  0  0  0  0  0  0  0  0  0  0  0
    9.7752   -1.2833    0.0000 N   0  0  0  0  0  0  0  0  0  0  0  0
    8.4698   -0.7021    0.0000 N   0  0  0  0  0  0  0  0  0  0  0  0
    7.4631   -2.9631    0.0000 C   0  0  2  0  0  0  0  0  0  0  0  0
    7.9480   -3.6305    0.0000 O   0  0  0  0  0  0  0  0  0  0  0  0
    6.6426   -3.0493    0.0000 C   0  0  1  0  0  0  0  0  0  0  0  0
    6.3071   -3.8030    0.0000 N   0  0  0  0  0  0  0  0  0  0  0  0
    5.4866   -3.8893    0.0000 C   0  0  0  0  0  0  0  0  0  0  0  0
    5.1510   -4.6429    0.0000 N   0  0  0  0  0  0  0  0  0  0  0  0
    5.0016   -3.2218    0.0000 N   0  0  0  0  0  0  0  0  0  0  0  0
    6.1577   -2.3819    0.0000 C   0  0  2  0  0  0  0  0  0  0  0  0
    5.3372   -2.4681    0.0000 O   0  0  0  0  0  0  0  0  0  0  0  0
    6.4932   -1.6282    0.0000 C   0  0  1  0  0  0  0  0  0  0  0  0
    6.0083   -0.9608    0.0000 O   0  0  0  0  0  0  0  0  0  0  0  0
   12.7091   -0.8250    0.0000 O   0  0  0  0  0  0  0  0  0  0  0  0
   12.7091    0.0000    0.0000 S   0  0  0  0  0  0  0  0  0  0  0  0
   12.7091    0.8250    0.0000 O   0  0  0  0  0  0  0  0  0  0  0  0
   13.5341   -0.0000    0.0000 O   0  0  0  0  0  0  0  0  0  0  0  0
   11.8841    0.0000    0.0000 O   0  0  0  0  0  0  0  0  0  0  0  0
    0.0000   -7.9429    0.0000 O   0  0  0  0  0  0  0  0  0  0  0  0
    0.0000   -7.1179    0.0000 S   0  0  0  0  0  0  0  0  0  0  0  0
    0.0000   -6.2929    0.0000 O   0  0  0  0  0  0  0  0  0  0  0  0
    0.8250   -7.1179    0.0000 O   0  0  0  0  0  0  0  0  0  0  0  0
   -0.8250   -7.1179    0.0000 O   0  0  0  0  0  0  0  0  0  0  0  0
    3.4179   -7.9429    0.0000 O   0  0  0  0  0  0  0  0  0  0  0  0
    3.4179   -7.1179    0.0000 S   0  0  0  0  0  0  0  0  0  0  0  0
    3.4179   -6.2929    0.0000 O   0  0  0  0  0  0  0  0  0  0  0  0
    4.2429   -7.1179    0.0000 O   0  0  0  0  0  0  0  0  0  0  0  0
    2.5929   -7.1179    0.0000 O   0  0  0  0  0  0  0  0  0  0  0  0
  1  2  1  6  0  0  0
  3  2  1  6  0  0  0
  3  4  1  0  0  0  0
  4  5  1  0  0  0  0
  5  6  1  0  0  0  0
  6  7  1  1  0  0  0
  6  8  1  0  0  0  0
  3  8  1  0  0  0  0
  8  9  1  1  0  0  0
 10  9  1  6  0  0  0
 10 11  1  0  0  0  0
 11 12  1  0  0  0  0
 12 13  1  0  0  0  0
 13 14  1  6  0  0  0
 13 15  1  0  0  0  0
 15 16  1  1  0  0  0
 15 17  1  0  0  0  0
 10 17  1  0  0  0  0
 17 18  1  6  0  0  0
 18 19  1  0  0  0  0
 12 20  1  1  0  0  0
 20 21  1  0  0  0  0
  6 22  1  6  0  0  0
 22 23  2  0  0  0  0
  5 24  1  1  0  0  0
  1 25  1  0  0  0  0
 25 26  1  1  0  0  0
 26 27  2  0  0  0  0
 27 28  1  0  0  0  0
 27 29  1  0  0  0  0
 25 30  1  0  0  0  0
 30 31  1  6  0  0  0
 30 32  1  0  0  0  0
 32 33  1  1  0  0  0
 33 34  2  0  0  0  0
 34 35  1  0  0  0  0
 34 36  1  0  0  0  0
 32 37  1  0  0  0  0
 37 38  1  6  0  0  0
 37 39  1  0  0  0  0
  1 39  1  0  0  0  0
 39 40  1  1  0  0  0
 41 42  1  6  0  0  0
 43 42  1  6  0  0  0
 43 44  1  0  0  0  0
 44 45  1  0  0  0  0
 45 46  1  0  0  0  0
 46 47  1  1  0  0  0
 46 48  1  0  0  0  0
 43 48  1  0  0  0  0
 48 49  1  1  0  0  0
 50 49  1  6  0  0  0
 50 51  1  0  0  0  0
 51 52  1  0  0  0  0
 52 53  1  0  0  0  0
 53 54  1  6  0  0  0
 53 55  1  0  0  0  0
 55 56  1  1  0  0  0
 55 57  1  0  0  0  0
 50 57  1  0  0  0  0
 57 58  1  6  0  0  0
 58 59  1  0  0  0  0
 52 60  1  1  0  0  0
 60 61  1  0  0  0  0
 46 62  1  6  0  0  0
 62 63  2  0  0  0  0
 45 64  1  1  0  0  0
 41 65  1  0  0  0  0
 65 66  1  1  0  0  0
 66 67  2  0  0  0  0
 67 68  1  0  0  0  0
 67 69  1  0  0  0  0
 65 70  1  0  0  0  0
 70 71  1  6  0  0  0
 70 72  1  0  0  0  0
 72 73  1  1  0  0  0
 73 74  2  0  0  0  0
 74 75  1  0  0  0  0
 74 76  1  0  0  0  0
 72 77  1  0  0  0  0
 77 78  1  6  0  0  0
 77 79  1  0  0  0  0
 41 79  1  0  0  0  0
 79 80  1  1  0  0  0
 81 82  2  0  0  0  0
 82 83  1  0  0  0  0
 82 84  1  0  0  0  0
 82 85  2  0  0  0  0
 86 87  2  0  0  0  0
 87 88  1  0  0  0  0
 87 89  1  0  0  0  0
 87 90  2  0  0  0  0
 91 92  2  0  0  0  0
 92 93  1  0  0  0  0
 92 94  1  0  0  0  0
 92 95  2  0  0  0  0
M  END
>  <Name>
Streptomycin sulfate

>  <CAS>
3810-74-0

>  <Formula>
2C21H39N7O12.3H2SO4

>  <MolWt>
1457.38 

>  <Bioactivity>
Streptomycin sulfate is a sulfate salt of streptomycin that is a protein synthesis inhibitor.

>  <Pathways>
Microbiology & Virology

>  <Target>
Antibiotic

>  <Receptor>
30S ribosomal protein

>  <Reference>
1. Li J, et al. Biotechnol Prog. 2012 May-Jun;28(3):733-9. 

$$$$
83-07-8
  Mrv1561503291623562D          

 15 16  0  0  0  0            999 V2000
   -0.6078    1.1759    0.0000 C   0  0  0  0  0  0  0  0  0  0  0  0
   -1.3222    0.7634    0.0000 C   0  0  0  0  0  0  0  0  0  0  0  0
   -1.3222   -0.0616    0.0000 N   0  0  0  0  0  0  0  0  0  0  0  0
   -0.6548   -0.5465    0.0000 C   0  0  0  0  0  0  0  0  0  0  0  0
   -0.9097   -1.3312    0.0000 C   0  0  0  0  0  0  0  0  0  0  0  0
   -1.7347   -1.3312    0.0000 C   0  0  0  0  0  0  0  0  0  0  0  0
   -1.9897   -0.5465    0.0000 N   0  0  0  0  0  0  0  0  0  0  0  0
   -2.7743   -0.2916    0.0000 C   0  0  0  0  0  0  0  0  0  0  0  0
   -2.2197   -1.9986    0.0000 C   0  0  0  0  0  0  0  0  0  0  0  0
   -0.4248   -1.9986    0.0000 N   0  0  0  0  0  0  0  0  0  0  0  0
    0.1298   -0.2916    0.0000 O   0  0  0  0  0  0  0  0  0  0  0  0
   -2.0367    1.1759    0.0000 C   0  0  0  0  0  0  0  0  0  0  0  0
   -2.0367    2.0009    0.0000 C   0  0  0  0  0  0  0  0  0  0  0  0
   -1.3222    2.4134    0.0000 C   0  0  0  0  0  0  0  0  0  0  0  0
   -0.6078    2.0009    0.0000 C   0  0  0  0  0  0  0  0  0  0  0  0
  1  2  2  0  0  0  0
  2  3  1  0  0  0  0
  3  4  1  0  0  0  0
  4  5  1  0  0  0  0
  5  6  2  0  0  0  0
  6  7  1  0  0  0  0
  3  7  1  0  0  0  0
  7  8  1  0  0  0  0
  6  9  1  0  0  0  0
  5 10  1  0  0  0  0
  4 11  2  0  0  0  0
  2 12  1  0  0  0  0
 12 13  2  0  0  0  0
 13 14  1  0  0  0  0
 14 15  2  0  0  0  0
  1 15  1  0  0  0  0
M  END
>  <Name>
4-Aminoantipyrine

>  <CAS>
83-07-8

>  <Formula>
C11H13N3O

>  <MolWt>
203.24 

>  <Bioactivity>
Ampyrone is a metabolite of aminopyrine with analgesic, anti-inflammatory, and antipyretic properties. Due to the risk of agranulocytosis its use as a drug is discouraged. It is used as a reagent for biochemical reactions producing peroxides or phenols. Ampyrone stimulates liver microsomes and is also used to measure extracellular water.

>  <Pathways>
Neuroscience

>  <Target>
COX inhibitor

>  <Receptor>
Prostaglandin G/H synthase

>  <Reference>
1. Brune K, Neubert A. Clin Exp Rheumatol. 2001 Nov-Dec;19(6 Suppl 25):S51-7.

$$$$
67-03-8
  Mrv1561503291623562D          

 21 19  0  0  0  0            999 V2000
    0.4125    0.0000    0.0000 H   0  3  0  0  0  0  0  0  0  0  0  0
    4.2217    0.7430    0.0000 C   0  0  0  0  0  0  0  0  0  0  0  0
    4.2217   -0.0820    0.0000 N   0  3  0  0  0  0  0  0  0  0  0  0
    4.8891   -0.5669    0.0000 C   0  0  0  0  0  0  0  0  0  0  0  0
    4.6342   -1.3515    0.0000 S   0  0  0  0  0  0  0  0  0  0  0  0
    3.8092   -1.3515    0.0000 C   0  0  0  0  0  0  0  0  0  0  0  0
    3.5543   -0.5669    0.0000 C   0  0  0  0  0  0  0  0  0  0  0  0
    2.7696   -0.3119    0.0000 C   0  0  0  0  0  0  0  0  0  0  0  0
    3.3243   -2.0189    0.0000 C   0  0  0  0  0  0  0  0  0  0  0  0
    3.6598   -2.7726    0.0000 C   0  0  0  0  0  0  0  0  0  0  0  0
    3.1749   -3.4401    0.0000 O   0  0  0  0  0  0  0  0  0  0  0  0
    4.9362    1.1555    0.0000 C   0  0  0  0  0  0  0  0  0  0  0  0
    4.9362    1.9805    0.0000 C   0  0  0  0  0  0  0  0  0  0  0  0
    5.6506    2.3930    0.0000 N   0  0  0  0  0  0  0  0  0  0  0  0
    6.3651    1.9805    0.0000 C   0  0  0  0  0  0  0  0  0  0  0  0
    6.3651    1.1555    0.0000 N   0  0  0  0  0  0  0  0  0  0  0  0
    5.6506    0.7430    0.0000 C   0  0  0  0  0  0  0  0  0  0  0  0
    5.6506   -0.0820    0.0000 N   0  0  0  0  0  0  0  0  0  0  0  0
    7.0796    2.3930    0.0000 C   0  0  0  0  0  0  0  0  0  0  0  0
   -0.4125    0.0000    0.0000 Cl  0  5  0  0  0  0  0  0  0  0  0  0
    0.0000   -5.0901    0.0000 Cl  0  5  0  0  0  0  0  0  0  0  0  0
  2  3  1  0  0  0  0
  3  4  2  0  0  0  0
  4  5  1  0  0  0  0
  5  6  1  0  0  0  0
  6  7  2  0  0  0  0
  3  7  1  0  0  0  0
  7  8  1  0  0  0  0
  6  9  1  0  0  0  0
  9 10  1  0  0  0  0
 10 11  1  0  0  0  0
  2 12  1  0  0  0  0
 12 13  2  0  0  0  0
 13 14  1  0  0  0  0
 14 15  2  0  0  0  0
 15 16  1  0  0  0  0
 16 17  2  0  0  0  0
 12 17  1  0  0  0  0
 17 18  1  0  0  0  0
 15 19  1  0  0  0  0
M  CHG  4   1   1   3   1  20  -1  21  -1
M  END
>  <Name>
Thiamine hydrochloride

>  <CAS>
67-03-8

>  <Formula>
C12H18CLRN4OS

>  <MolWt>
337.27 

>  <Bioactivity>
Thiamine or vitamin B1 is a water-soluble vitamin of the B complex, its phosphate derivatives are involved in many cellular processes. Thiamine deficiency results in amyloid precursor protein immunoreactivity accumulated in swollen neurites within, or around lesions in rats, or in abnormal clusters in mice.

>  <Pathways>
Vitamin

>  <Target>
VB

>  <Receptor>
VB1

>  <Reference>
1. Ahn IP, et al. Plant Physiol, 2005, 138(3), 1505-1515. 

$$$$
50-99-7
  Mrv1561503291623562D          

 12 12  0  0  0  0            999 V2000
    0.7145    2.0625    0.0000 C   0  0  0  0  0  0  0  0  0  0  0  0
    0.7145    1.2375    0.0000 C   0  0  0  0  0  0  0  0  0  0  0  0
    1.4289    0.8250    0.0000 O   0  0  0  0  0  0  0  0  0  0  0  0
    1.4289    0.0000    0.0000 C   0  0  0  0  0  0  0  0  0  0  0  0
    0.7145   -0.4125    0.0000 C   0  0  0  0  0  0  0  0  0  0  0  0
    0.0000   -0.0000    0.0000 C   0  0  0  0  0  0  0  0  0  0  0  0
    0.0000    0.8250    0.0000 C   0  0  0  0  0  0  0  0  0  0  0  0
   -0.7145    1.2375    0.0000 O   0  0  0  0  0  0  0  0  0  0  0  0
   -0.7145   -0.4125    0.0000 O   0  0  0  0  0  0  0  0  0  0  0  0
    0.7145   -1.2375    0.0000 O   0  0  0  0  0  0  0  0  0  0  0  0
    2.1434   -0.4125    0.0000 O   0  0  0  0  0  0  0  0  0  0  0  0
   -0.0000    2.4750    0.0000 O   0  0  0  0  0  0  0  0  0  0  0  0
  1  2  1  0  0  0  0
  2  3  1  0  0  0  0
  3  4  1  0  0  0  0
  4  5  1  0  0  0  0
  5  6  1  0  0  0  0
  6  7  1  0  0  0  0
  2  7  1  0  0  0  0
  7  8  1  0  0  0  0
  6  9  1  0  0  0  0
  5 10  1  0  0  0  0
  4 11  1  0  0  0  0
  1 12  1  0  0  0  0
M  END
>  <Name>
D(+)-Glucose

>  <CAS>
50-99-7

>  <Formula>
C6H12O6

>  <MolWt>
180.16 

>  <Bioactivity>
Dextrose is the biologically active form of Glucose (D-Glucose).

>  <Pathways>
Others

>  <Target>
Others

>  <Receptor>
Others

>  <Reference>
1. Feldman-Billard S, et al. Diabetes Res Clin Pract. 2013 Nov;102(2):e35-7. 

$$$$
T0009
  Mrv1561503291623562D          

 23 25  0  0  0  0            999 V2000
    3.2789    1.2375    0.0000 C   0  0  0  0  0  0  0  0  0  0  0  0
    3.9934    0.8250    0.0000 C   0  0  0  0  0  0  0  0  0  0  0  0
    4.7079    1.2375    0.0000 C   0  0  0  0  0  0  0  0  0  0  0  0
    5.4223    0.8250    0.0000 C   0  0  0  0  0  0  0  0  0  0  0  0
    6.1368    1.2375    0.0000 C   0  0  0  0  0  0  0  0  0  0  0  0
    6.8513    0.8250    0.0000 C   0  0  0  0  0  0  0  0  0  0  0  0
    6.8513    0.0000    0.0000 C   0  0  0  0  0  0  0  0  0  0  0  0
    6.1368   -0.4125    0.0000 C   0  0  0  0  0  0  0  0  0  0  0  0
    5.4223    0.0000    0.0000 C   0  0  0  0  0  0  0  0  0  0  0  0
    7.5658   -0.4125    0.0000 F   0  0  0  0  0  0  0  0  0  0  0  0
    4.7079    2.0625    0.0000 O   0  0  0  0  0  0  0  0  0  0  0  0
    3.9934    0.0000    0.0000 C   0  0  0  0  0  0  0  0  0  0  0  0
    3.2789   -0.4125    0.0000 C   0  0  0  0  0  0  0  0  0  0  0  0
    2.5645   -0.0000    0.0000 C   0  0  0  0  0  0  0  0  0  0  0  0
    2.5645    0.8250    0.0000 C   0  0  0  0  0  0  0  0  0  0  0  0
    1.7798    1.0799    0.0000 N   0  0  0  0  0  0  0  0  0  0  0  0
    1.2949    0.4125    0.0000 C   0  0  0  0  0  0  0  0  0  0  0  0
    1.7798   -0.2549    0.0000 N   0  0  0  0  0  0  0  0  0  0  0  0
    0.4699    0.4125    0.0000 N   0  0  0  0  0  0  0  0  0  0  0  0
    0.0574   -0.3020    0.0000 C   0  0  0  0  0  0  0  0  0  0  0  0
   -0.7676   -0.3020    0.0000 O   0  0  0  0  0  0  0  0  0  0  0  0
   -1.1801   -1.0164    0.0000 C   0  0  0  0  0  0  0  0  0  0  0  0
    0.4699   -1.0164    0.0000 O   0  0  0  0  0  0  0  0  0  0  0  0
  1  2  2  0  0  0  0
  2  3  1  0  0  0  0
  3  4  1  0  0  0  0
  4  5  2  0  0  0  0
  5  6  1  0  0  0  0
  6  7  2  0  0  0  0
  7  8  1  0  0  0  0
  8  9  2  0  0  0  0
  4  9  1  0  0  0  0
  7 10  1  0  0  0  0
  3 11  2  0  0  0  0
  2 12  1  0  0  0  0
 12 13  2  0  0  0  0
 13 14  1  0  0  0  0
 14 15  2  0  0  0  0
  1 15  1  0  0  0  0
 15 16  1  0  0  0  0
 16 17  1  0  0  0  0
 17 18  2  0  0  0  0
 14 18  1  0  0  0  0
 17 19  1  0  0  0  0
 19 20  1  0  0  0  0
 20 21  1  0  0  0  0
 21 22  1  0  0  0  0
 20 23  2  0  0  0  0
M  END
>  <Name>
Flubendazole

>  <CAS>
31430-15-6

>  <Formula>
C16H12FN3O3

>  <MolWt>
313.29 

>  <Bioactivity>
Flubendazole is an anthelmintic that is used to treat worm infection in humans. It is available OTC in Europe.

>  <Pathways>
Cell Cycle/Checkpoint

>  <Target>
Microtubule Associated inhibitor

>  <Receptor>
microtubulin

>  <Reference>
1. Hou ZJ, et al. Oncotarget. 2015 Jan 21;6(8):6326-40.

$$$$
T0010
  Mrv1561503291623562D          

 10 11  0  0  0  0            999 V2000
   -0.6284   -0.6979    0.0000 C   0  0  0  0  0  0  0  0  0  0  0  0
   -0.1435   -1.3654    0.0000 N   0  0  0  0  0  0  0  0  0  0  0  0
    0.6411   -1.1104    0.0000 C   0  0  0  0  0  0  0  0  0  0  0  0
    0.6411   -0.2854    0.0000 C   0  0  0  0  0  0  0  0  0  0  0  0
   -0.1435   -0.0305    0.0000 N   0  0  0  0  0  0  0  0  0  0  0  0
    1.3556    0.1271    0.0000 C   0  0  0  0  0  0  0  0  0  0  0  0
    1.3556    0.9521    0.0000 S   0  0  0  0  0  0  0  0  0  0  0  0
    2.0701   -0.2854    0.0000 N   0  0  0  0  0  0  0  0  0  0  0  0
    2.0701   -1.1104    0.0000 C   0  0  0  0  0  0  0  0  0  0  0  0
    1.3556   -1.5229    0.0000 N   0  0  0  0  0  0  0  0  0  0  0  0
  1  2  2  0  0  0  0
  2  3  1  0  0  0  0
  3  4  2  0  0  0  0
  4  5  1  0  0  0  0
  1  5  1  0  0  0  0
  4  6  1  0  0  0  0
  6  7  2  0  0  0  0
  6  8  1  0  0  0  0
  8  9  2  0  0  0  0
  9 10  1  0  0  0  0
  3 10  1  0  0  0  0
M  END
>  <Name>
Mercaptopurine (6-MP)

>  <CAS>
50-44-2

>  <Formula>
C5H4N4S

>  <MolWt>
152.18 

>  <Bioactivity>
Mercaptopurine is a widely used anti-leukemic agent and immunosuppressive drug that inhibits de novo purine synthesis through incorporation of thiopurine methyltransferase metabolites into DNA and RNA.

>  <Pathways>
DNA Damage/DNA Repair; Metabolism

>  <Target>
Dehydrogenase inhibitor; DNA/RNA Synthesis

>  <Receptor>
IMPDH;HPRT

>  <Reference>
1. Dubinsky MC, et al. Clin Gastroenterol Hepatol. 2004 Sep;2(9):731-43. 

$$$$
156-54-7
  Mrv1561503291623562D          

  7  5  0  0  0  0            999 V2000
    1.9520   -1.1270    0.0000 C   0  0  0  0  0  0  0  0  0  0  0  0
    1.2375   -0.7145    0.0000 C   0  0  0  0  0  0  0  0  0  0  0  0
    0.5230   -1.1270    0.0000 O   0  5  0  0  0  0  0  0  0  0  0  0
    1.2375    0.1105    0.0000 O   0  0  0  0  0  0  0  0  0  0  0  0
    2.6664   -0.7145    0.0000 C   0  0  0  0  0  0  0  0  0  0  0  0
    3.3809   -1.1270    0.0000 C   0  0  0  0  0  0  0  0  0  0  0  0
   -0.1914   -1.5395    0.0000 Na  0  3  0  0  0  0  0  0  0  0  0  0
  1  2  1  0  0  0  0
  2  3  1  0  0  0  0
  2  4  2  0  0  0  0
  1  5  1  0  0  0  0
  5  6  1  0  0  0  0
M  CHG  2   3  -1   7   1
M  END
>  <Name>
Sodium butanoate

>  <CAS>
156-54-7

>  <Formula>
C4H7NaO2

>  <MolWt>
110.09 

>  <Bioactivity>
It has various effects on cultured mammalian cells including inhibition of proliferation, induction of differentiation and induction or repression of gene expression. As such, it can be used in lab to bring about any of these effects. Specifically, butyrate treatment of cells results in histone hyperacetylation, and butyrate itself inhibits HDAC activity. Butyrate has been an essential vehicle for determining the role of histone acetylation in chromatin structure and function. Inhibition of HDAC activity is estimated to affect the expression of only 2% of mammalian genes

>  <Pathways>
Neuroscience

>  <Target>
Histamine Receptor antagonist

>  <Receptor>
Histamine H1 receptor

>  <Reference>
1. Archer SY, et al. Proc Natl Acad Sci U S A, 1998, 95(12), 6791-6796.


$$$$
T0002
  Mrv1561503291623562D          

 17 16  0  0  0  0            999 V2000
    1.2503   -0.1031    0.0000 C   0  0  0  0  0  0  0  0  0  0  0  0
    0.5359   -0.5156    0.0000 C   0  0  0  0  0  0  0  0  0  0  0  0
   -0.1786   -0.1031    0.0000 C   0  0  0  0  0  0  0  0  0  0  0  0
   -0.1786    0.7219    0.0000 C   0  0  0  0  0  0  0  0  0  0  0  0
    0.5359    1.1344    0.0000 C   0  0  0  0  0  0  0  0  0  0  0  0
    1.2503    0.7219    0.0000 C   0  0  0  0  0  0  0  0  0  0  0  0
    0.5359    1.9594    0.0000 O   0  0  0  0  0  0  0  0  0  0  0  0
   -0.8931   -0.5156    0.0000 S   0  0  0  0  0  0  0  0  0  0  0  0
   -1.6076   -0.9281    0.0000 O   0  0  0  0  0  0  0  0  0  0  0  0
   -1.3056    0.1988    0.0000 O   0  0  0  0  0  0  0  0  0  0  0  0
   -0.4806   -1.2301    0.0000 O   0  0  0  0  0  0  0  0  0  0  0  0
    0.5359   -1.3406    0.0000 O   0  0  0  0  0  0  0  0  0  0  0  0
    4.4325    0.5716    0.0000 C   0  0  0  0  0  0  0  0  0  0  0  0
    4.8450   -0.1429    0.0000 N   0  0  0  0  0  0  0  0  0  0  0  0
    5.6700   -0.1429    0.0000 C   0  0  0  0  0  0  0  0  0  0  0  0
    6.0825   -0.8574    0.0000 C   0  0  0  0  0  0  0  0  0  0  0  0
    3.6075    0.5716    0.0000 C   0  0  0  0  0  0  0  0  0  0  0  0
  1  2  2  0  0  0  0
  2  3  1  0  0  0  0
  3  4  2  0  0  0  0
  4  5  1  0  0  0  0
  5  6  2  0  0  0  0
  1  6  1  0  0  0  0
  5  7  1  0  0  0  0
  3  8  1  0  0  0  0
  8  9  2  0  0  0  0
  8 10  2  0  0  0  0
  8 11  1  0  0  0  0
  2 12  1  0  0  0  0
 13 14  1  0  0  0  0
 14 15  1  0  0  0  0
 15 16  1  0  0  0  0
 13 17  1  0  0  0  0
M  END
>  <Name>
Etamsylate

>  <CAS>
2624-44-4

>  <Formula>
C10H17NO5S

>  <MolWt>
263.31 

>  <Bioactivity>
Ethamsylate is a haemostatic drug, which inhibits biosynthesis and action of prostaglandins, and increases capillary endothelial resistance as and platelet adhesion

>  <Pathways>
Angiogenesis

>  <Target>
TpoR agonist

>  <Receptor>
Thrombopoiesis

>  <Reference>
1. Garay RP, et al. Am J Ther, 2006, 13(3), 236-247.

$$$$
14402-89-2
  Mrv1561503291623562D          

 15 12  0  0  0  0            999 V2000
    0.0000   -0.0000    0.0000 Fe  0  6  0  0  0  0  0  0  0  0  0  0
    0.5500    0.9526    0.0000 C   0  0  0  0  0  0  0  0  0  0  0  0
    0.9625    1.6671    0.0000 N   0  0  0  0  0  0  0  0  0  0  0  0
   -0.5500   -0.9526    0.0000 C   0  0  0  0  0  0  0  0  0  0  0  0
   -0.9625   -1.6671    0.0000 N   0  0  0  0  0  0  0  0  0  0  0  0
    0.5500   -0.9526    0.0000 C   0  0  0  0  0  0  0  0  0  0  0  0
    0.9625   -1.6671    0.0000 N   0  0  0  0  0  0  0  0  0  0  0  0
    1.1000    0.0000    0.0000 N   0  0  0  0  0  0  0  0  0  0  0  0
    1.9250    0.0000    0.0000 O   0  0  0  0  0  0  0  0  0  0  0  0
   -0.5500    0.9526    0.0000 C   0  0  0  0  0  0  0  0  0  0  0  0
   -0.9625    1.6671    0.0000 N   0  0  0  0  0  0  0  0  0  0  0  0
   -1.1000    0.0000    0.0000 C   0  0  0  0  0  0  0  0  0  0  0  0
   -1.9250    0.0000    0.0000 N   0  0  0  0  0  0  0  0  0  0  0  0
    4.2821    0.0000    0.0000 Na  0  3  0  0  0  0  0  0  0  0  0  0
    0.0000   -3.3171    0.0000 Na  0  3  0  0  0  0  0  0  0  0  0  0
  2  1  8  0  0  0  0
  2  3  3  0  0  0  0
  4  1  8  0  0  0  0
  4  5  3  0  0  0  0
  6  1  8  0  0  0  0
  6  7  3  0  0  0  0
  8  1  8  0  0  0  0
  8  9  2  0  0  0  0
 10  1  8  0  0  0  0
 10 11  3  0  0  0  0
 12  1  8  0  0  0  0
 12 13  3  0  0  0  0
M  CHG  3   1  -2  14   1  15   1
M  STY  6   1 DAT   2 DAT   3 DAT   4 DAT   5 DAT   6 DAT
M  SAL   1  2   2   1
M  SDT   1 MRV_COORDINATE_BOND_TYPE                              
M  SDD   1     0.0000    0.0000    DR    ALL  0       0  
M  SED   1 1
M  SAL   2  2   4   1
M  SDT   2 MRV_COORDINATE_BOND_TYPE                              
M  SDD   2     0.0000    0.0000    DR    ALL  0       0  
M  SED   2 3
M  SAL   3  2   6   1
M  SDT   3 MRV_COORDINATE_BOND_TYPE                              
M  SDD   3     0.0000    0.0000    DR    ALL  0       0  
M  SED   3 5
M  SAL   4  2   8   1
M  SDT   4 MRV_COORDINATE_BOND_TYPE                              
M  SDD   4     0.0000    0.0000    DR    ALL  0       0  
M  SED   4 7
M  SAL   5  2  10   1
M  SDT   5 MRV_COORDINATE_BOND_TYPE                              
M  SDD   5     0.0000    0.0000    DR    ALL  0       0  
M  SED   5 9
M  SAL   6  2  12   1
M  SDT   6 MRV_COORDINATE_BOND_TYPE                              
M  SDD   6     0.0000    0.0000    DR    ALL  0       0  
M  SED   6 11
M  END
>  <Name>
Sodium Nitroprusside

>  <CAS>
14402-89-2

>  <Formula>
Na2Fe(CN)5NO

>  <MolWt>
261.92 

>  <Bioactivity>
a potent vasodilator working through releasing NO spontaneously in blood

>  <Pathways>
Membrane Transporter/Ion Channel

>  <Target>
Atrial natriuretic peptide receptor agonist

>  <Receptor>
Atrial natriuretic peptide receptor 1

>  <Reference>
1. Wink DA, et al. Arch Biochem Biophys, 1996, 331(2), 241-8.

$$$$
T1681
  Mrv1561503291623562D          

 30 31  0  0  0  0            999 V2000
   -1.8206   -0.0000    0.0000 C   0  0  0  0  0  0  0  0  0  0  0  0
   -1.3357   -0.6674    0.0000 N   0  0  0  0  0  0  0  0  0  0  0  0
   -0.5511   -0.4125    0.0000 C   0  0  0  0  0  0  0  0  0  0  0  0
   -0.5511    0.4125    0.0000 C   0  0  0  0  0  0  0  0  0  0  0  0
    0.1634    0.8250    0.0000 C   0  0  0  0  0  0  0  0  0  0  0  0
    0.8779    0.4125    0.0000 N   0  0  0  0  0  0  0  0  0  0  0  0
    1.5924    0.8250    0.0000 C   0  0  0  0  0  0  0  0  0  0  0  0
    0.8779   -0.4125    0.0000 C   0  0  0  0  0  0  0  0  0  0  0  0
    0.1634   -0.8250    0.0000 N   0  0  0  0  0  0  0  0  0  0  0  0
    0.1634   -1.6500    0.0000 C   0  0  0  0  0  0  0  0  0  0  0  0
    1.5924   -0.8250    0.0000 O   0  0  0  0  0  0  0  0  0  0  0  0
    0.1634    1.6500    0.0000 O   0  0  0  0  0  0  0  0  0  0  0  0
   -1.3357    0.6674    0.0000 N   0  0  0  0  0  0  0  0  0  0  0  0
    3.4781   -0.0000    0.0000 C   0  0  0  0  0  0  0  0  0  0  0  0
    3.9630   -0.6674    0.0000 N   0  0  0  0  0  0  0  0  0  0  0  0
    4.7476   -0.4125    0.0000 C   0  0  0  0  0  0  0  0  0  0  0  0
    4.7476    0.4125    0.0000 C   0  0  0  0  0  0  0  0  0  0  0  0
    5.4621    0.8250    0.0000 C   0  0  0  0  0  0  0  0  0  0  0  0
    6.1766    0.4125    0.0000 N   0  0  0  0  0  0  0  0  0  0  0  0
    6.8910    0.8250    0.0000 C   0  0  0  0  0  0  0  0  0  0  0  0
    6.1766   -0.4125    0.0000 C   0  0  0  0  0  0  0  0  0  0  0  0
    5.4621   -0.8250    0.0000 N   0  0  0  0  0  0  0  0  0  0  0  0
    5.4621   -1.6500    0.0000 C   0  0  0  0  0  0  0  0  0  0  0  0
    6.8910   -0.8250    0.0000 O   0  0  0  0  0  0  0  0  0  0  0  0
    5.4621    1.6500    0.0000 O   0  0  0  0  0  0  0  0  0  0  0  0
    3.9630    0.6674    0.0000 N   0  0  0  0  0  0  0  0  0  0  0  0
   -0.2062   -3.3000    0.0000 C   0  0  0  0  0  0  0  0  0  0  0  0
    0.2062   -4.0145    0.0000 C   0  0  0  0  0  0  0  0  0  0  0  0
    1.0312   -4.0145    0.0000 N   0  0  0  0  0  0  0  0  0  0  0  0
   -1.0312   -3.3000    0.0000 N   0  0  0  0  0  0  0  0  0  0  0  0
  1  2  2  0  0  0  0
  2  3  1  0  0  0  0
  3  4  2  0  0  0  0
  4  5  1  0  0  0  0
  5  6  1  0  0  0  0
  6  7  1  0  0  0  0
  6  8  1  0  0  0  0
  8  9  1  0  0  0  0
  3  9  1  0  0  0  0
  9 10  1  0  0  0  0
  8 11  2  0  0  0  0
  5 12  2  0  0  0  0
  4 13  1  0  0  0  0
  1 13  1  0  0  0  0
 14 15  2  0  0  0  0
 15 16  1  0  0  0  0
 16 17  2  0  0  0  0
 17 18  1  0  0  0  0
 18 19  1  0  0  0  0
 19 20  1  0  0  0  0
 19 21  1  0  0  0  0
 21 22  1  0  0  0  0
 16 22  1  0  0  0  0
 22 23  1  0  0  0  0
 21 24  2  0  0  0  0
 18 25  2  0  0  0  0
 17 26  1  0  0  0  0
 14 26  1  0  0  0  0
 27 28  1  0  0  0  0
 28 29  1  0  0  0  0
 27 30  1  0  0  0  0
M  END
>  <Name>
Aminophylline

>  <CAS>
317-34-0

>  <Formula>
2C7H8O2.C2H8N2

>  <MolWt>
420.43 

>  <Bioactivity>
Aminophylline is a drug combination that contains THEOPHYLLINE and ethylenediamine. It is more soluble in water than theophylline but has similar pharmacologic actions. It's most common use is in bronchial asthma, but it has been investigated for several other applications.


>  <Pathways>
Metabolism; GPCR/G Protein; Chromatin/Epigenetic

>  <Target>
PDE inhibitor; Adenosine receptor antagonist;HDAC2 activator

>  <Receptor>
PDE; Adenosine receptor;HDAC2

>  <Reference>
1. Hirota K, et al. Acta Anaesthesiol Scand. 2002 Mar;46(3):297-302. 

$$$$
91-53-2
  Mrv1561503291623562D          

 16 17  0  0  0  0            999 V2000
   -0.0000    0.0000    0.0000 C   0  0  0  0  0  0  0  0  0  0  0  0
   -0.7145   -0.4125    0.0000 C   0  0  0  0  0  0  0  0  0  0  0  0
   -0.7145   -1.2375    0.0000 C   0  0  0  0  0  0  0  0  0  0  0  0
   -0.0000   -1.6500    0.0000 C   0  0  0  0  0  0  0  0  0  0  0  0
    0.7145   -1.2375    0.0000 C   0  0  0  0  0  0  0  0  0  0  0  0
    0.7145   -0.4125    0.0000 C   0  0  0  0  0  0  0  0  0  0  0  0
    1.4289    0.0000    0.0000 N   0  0  0  0  0  0  0  0  0  0  0  0
    2.1434   -0.4125    0.0000 C   0  0  0  0  0  0  0  0  0  0  0  0
    2.4256    0.3627    0.0000 C   0  0  0  0  0  0  0  0  0  0  0  0
    2.9559   -0.5558    0.0000 C   0  0  0  0  0  0  0  0  0  0  0  0
    2.1434   -1.2375    0.0000 C   0  0  0  0  0  0  0  0  0  0  0  0
    1.4289   -1.6500    0.0000 C   0  0  0  0  0  0  0  0  0  0  0  0
    1.4289   -2.4750    0.0000 C   0  0  0  0  0  0  0  0  0  0  0  0
   -1.4289   -1.6500    0.0000 O   0  0  0  0  0  0  0  0  0  0  0  0
   -2.1434   -1.2375    0.0000 C   0  0  0  0  0  0  0  0  0  0  0  0
   -2.8579   -1.6500    0.0000 C   0  0  0  0  0  0  0  0  0  0  0  0
  1  2  2  0  0  0  0
  2  3  1  0  0  0  0
  3  4  2  0  0  0  0
  4  5  1  0  0  0  0
  5  6  2  0  0  0  0
  1  6  1  0  0  0  0
  6  7  1  0  0  0  0
  7  8  1  0  0  0  0
  8  9  1  0  0  0  0
  8 10  1  0  0  0  0
  8 11  1  0  0  0  0
 11 12  2  0  0  0  0
  5 12  1  0  0  0  0
 12 13  1  0  0  0  0
  3 14  1  0  0  0  0
 14 15  1  0  0  0  0
 15 16  1  0  0  0  0
M  END
>  <Name>
Ethoxyquin

>  <CAS>
91-53-2

>  <Formula>
C14H19NO

>  <MolWt>
217.31 

>  <Bioactivity>
Antioxidant; also a post-harvest dip to prevent scald on apples and pears.


>  <Pathways>
Others

>  <Target>
Others

>  <Receptor>
Others

>  <Reference>
1. Rubel DM, Freeman S. Australas J Dermatol. 1998 May;39(2):89-91.

$$$$
T0087L
  Mrv1561503291623562D          

 15 14  0  0  0  0            999 V2000
    0.9186   -0.6482    0.0000 C   0  0  0  0  0  0  0  0  0  0  0  0
    0.9186   -1.4732    0.0000 C   0  0  0  0  0  0  0  0  0  0  0  0
    0.2041   -1.8857    0.0000 C   0  0  0  0  0  0  0  0  0  0  0  0
   -0.5103   -1.4732    0.0000 C   0  0  0  0  0  0  0  0  0  0  0  0
   -0.5103   -0.6482    0.0000 C   0  0  0  0  0  0  0  0  0  0  0  0
    0.2041   -0.2357    0.0000 C   0  0  0  0  0  0  0  0  0  0  0  0
    0.2041    0.5893    0.0000 S   0  0  0  0  0  0  0  0  0  0  0  0
    0.2041    1.4143    0.0000 N   0  5  0  0  0  0  0  0  0  0  0  0
   -0.5103    1.8268    0.0000 C   0  0  0  0  0  0  0  0  0  0  0  0
   -0.5103    2.6518    0.0000 O   0  0  0  0  0  0  0  0  0  0  0  0
   -1.2248    1.4143    0.0000 C   0  0  0  0  0  0  0  0  0  0  0  0
   -0.6209    0.5893    0.0000 O   0  0  0  0  0  0  0  0  0  0  0  0
    1.0291    0.5893    0.0000 O   0  0  0  0  0  0  0  0  0  0  0  0
    0.2041   -2.7107    0.0000 N   0  0  0  0  0  0  0  0  0  0  0  0
    3.3863    0.0000    0.0000 Na  0  3  0  0  0  0  0  0  0  0  0  0
  1  2  2  0  0  0  0
  2  3  1  0  0  0  0
  3  4  2  0  0  0  0
  4  5  1  0  0  0  0
  5  6  2  0  0  0  0
  1  6  1  0  0  0  0
  6  7  1  0  0  0  0
  7  8  1  0  0  0  0
  8  9  1  0  0  0  0
  9 10  2  0  0  0  0
  9 11  1  0  0  0  0
  7 12  2  0  0  0  0
  7 13  2  0  0  0  0
  3 14  1  0  0  0  0
M  CHG  2   8  -1  15   1
M  END
>  <Name>
Sulfacetamide sodium

>  <CAS>
127-56-0

>  <Formula>
C8H9N2NaO3S.XH2O

>  <MolWt>
236.22 

>  <Bioactivity>
An anti-infective agent that is used topically to treat skin infections and orally for urinary tract infections.

>  <Pathways>
Ubiquitination

>  <Target>
Autophagy

>  <Receptor>
Autophagy

>  <Reference>
1. Hanna C, et al. Ann Ophthalmol. 1985 Sep;17(9):560-4.

$$$$
T0770
  Mrv1561503291623562D          

 19 20  0  0  0  0            999 V2000
    1.4289   -0.0000    0.0000 C   0  0  0  0  0  0  0  0  0  0  0  0
    2.1434   -0.4125    0.0000 C   0  0  0  0  0  0  0  0  0  0  0  0
    2.8579   -0.0000    0.0000 N   0  0  0  0  0  0  0  0  0  0  0  0
    2.8579    0.8250    0.0000 O   0  0  0  0  0  0  0  0  0  0  0  0
    3.5724   -0.4125    0.0000 C   0  0  0  0  0  0  0  0  0  0  0  0
    3.5724   -1.2375    0.0000 C   0  0  0  0  0  0  0  0  0  0  0  0
    2.8579   -1.6500    0.0000 N   0  3  0  0  0  0  0  0  0  0  0  0
    2.8579   -2.4750    0.0000 O   0  5  0  0  0  0  0  0  0  0  0  0
    2.1434   -1.2375    0.0000 C   0  0  0  0  0  0  0  0  0  0  0  0
    1.4289   -1.6500    0.0000 C   0  0  0  0  0  0  0  0  0  0  0  0
    0.7145   -1.2375    0.0000 C   0  0  0  0  0  0  0  0  0  0  0  0
    0.7145   -0.4125    0.0000 C   0  0  0  0  0  0  0  0  0  0  0  0
    4.2868   -0.0000    0.0000 C   0  0  0  0  0  0  0  0  0  0  0  0
    4.2868    0.8250    0.0000 N   0  0  0  0  0  0  0  0  0  0  0  0
    5.0013    1.2375    0.0000 N   0  0  0  0  0  0  0  0  0  0  0  0
    5.0013    2.0625    0.0000 C   0  0  0  0  0  0  0  0  0  0  0  0
    5.7158    2.4750    0.0000 O   0  0  0  0  0  0  0  0  0  0  0  0
    5.7158    3.3000    0.0000 C   0  0  0  0  0  0  0  0  0  0  0  0
    4.2868    2.4750    0.0000 O   0  0  0  0  0  0  0  0  0  0  0  0
  1  2  2  0  0  0  0
  2  3  1  0  0  0  0
  3  4  1  0  0  0  0
  3  5  1  0  0  0  0
  5  6  1  0  0  0  0
  6  7  2  0  0  0  0
  7  8  1  0  0  0  0
  7  9  1  0  0  0  0
  2  9  1  0  0  0  0
  9 10  2  0  0  0  0
 10 11  1  0  0  0  0
 11 12  2  0  0  0  0
  1 12  1  0  0  0  0
  5 13  2  0  0  0  0
 13 14  1  4  0  0  0
 14 15  2  0  0  0  0
 15 16  1  4  0  0  0
 16 17  1  0  0  0  0
 17 18  1  0  0  0  0
 16 19  2  0  0  0  0
M  CHG  2   7   1   8  -1
M  END
>  <Name>
Carbadox

>  <CAS>
6804-07-5

>  <Formula>
C11H10N4O4

>  <MolWt>
262.22 

>  <Bioactivity>
An antibacterial agent that has been used in veterinary practice for treating swine dysentery and enteritis and for promoting growth. However, its use has been prohibited in the UK following reports of carcinogenicity and mutagenicity. (From Martindale, The Extra Pharmacopoeia, 30th ed, p125)


>  <Pathways>
Microbiology & Virology

>  <Target>
Antibacterial

>  <Receptor>
Others

>  <Reference>
1. Bearson BL, et al. Front Microbiol. 2014 Feb 11;5:52. 

$$$$
119-36-8
  Mrv1561503291623562D          

 11 11  0  0  0  0            999 V2000
    0.7145   -0.4125    0.0000 C   0  0  0  0  0  0  0  0  0  0  0  0
    0.0000   -0.0000    0.0000 C   0  0  0  0  0  0  0  0  0  0  0  0
   -0.0000    0.8250    0.0000 C   0  0  0  0  0  0  0  0  0  0  0  0
    0.7145    1.2375    0.0000 C   0  0  0  0  0  0  0  0  0  0  0  0
    1.4289    0.8250    0.0000 C   0  0  0  0  0  0  0  0  0  0  0  0
    1.4289    0.0000    0.0000 C   0  0  0  0  0  0  0  0  0  0  0  0
    0.7145    2.0625    0.0000 C   0  0  0  0  0  0  0  0  0  0  0  0
    0.0000    2.4750    0.0000 O   0  0  0  0  0  0  0  0  0  0  0  0
    1.4289    2.4750    0.0000 O   0  0  0  0  0  0  0  0  0  0  0  0
    1.4289    3.3000    0.0000 C   0  0  0  0  0  0  0  0  0  0  0  0
   -0.7145    1.2375    0.0000 O   0  0  0  0  0  0  0  0  0  0  0  0
  1  2  2  0  0  0  0
  2  3  1  0  0  0  0
  3  4  2  0  0  0  0
  4  5  1  0  0  0  0
  5  6  2  0  0  0  0
  1  6  1  0  0  0  0
  4  7  1  0  0  0  0
  7  8  2  0  0  0  0
  7  9  1  0  0  0  0
  9 10  1  0  0  0  0
  3 11  1  0  0  0  0
M  END
>  <Name>
Birch-Me

>  <CAS>
119-36-8

>  <Formula>
C8H8O3

>  <MolWt>
152.15 

>  <Bioactivity>
Methyl salicylate (oil of wintergreen or wintergreen oil) is an organic ester naturally produced by many species of plants, particularly wintergreens. It is also synthetically produced, used as a fragrance, in foods and beverages, and in liniments.

>  <Pathways>
Others

>  <Target>
Others

>  <Receptor>
Others

>  <Reference>
1. Spiandore M, et al. Drug Test Anal. 2014 Jun;6 Suppl 1:67-73.

$$$$
94-09-7
  Mrv1561503291623562D          

 12 12  0  0  0  0            999 V2000
    1.4289   -0.0000    0.0000 C   0  0  0  0  0  0  0  0  0  0  0  0
    0.7145   -0.4125    0.0000 C   0  0  0  0  0  0  0  0  0  0  0  0
    0.7145   -1.2375    0.0000 C   0  0  0  0  0  0  0  0  0  0  0  0
    1.4289   -1.6500    0.0000 O   0  0  0  0  0  0  0  0  0  0  0  0
    1.4289   -2.4750    0.0000 C   0  0  0  0  0  0  0  0  0  0  0  0
    2.1434   -2.8875    0.0000 C   0  0  0  0  0  0  0  0  0  0  0  0
    0.0000   -1.6500    0.0000 O   0  0  0  0  0  0  0  0  0  0  0  0
   -0.0000   -0.0000    0.0000 C   0  0  0  0  0  0  0  0  0  0  0  0
   -0.0000    0.8250    0.0000 C   0  0  0  0  0  0  0  0  0  0  0  0
    0.7145    1.2375    0.0000 C   0  0  0  0  0  0  0  0  0  0  0  0
    1.4289    0.8250    0.0000 C   0  0  0  0  0  0  0  0  0  0  0  0
    0.7145    2.0625    0.0000 N   0  0  0  0  0  0  0  0  0  0  0  0
  1  2  2  0  0  0  0
  2  3  1  0  0  0  0
  3  4  1  0  0  0  0
  4  5  1  0  0  0  0
  5  6  1  0  0  0  0
  3  7  2  0  0  0  0
  2  8  1  0  0  0  0
  8  9  2  0  0  0  0
  9 10  1  0  0  0  0
 10 11  2  0  0  0  0
  1 11  1  0  0  0  0
 10 12  1  0  0  0  0
M  END
>  <Name>
Benzocaine

>  <CAS>
94-09-7

>  <Formula>
C9H11NO2

>  <MolWt>
165.19 

>  <Bioactivity>
A surface anesthetic that acts by preventing transmission of impulses along nerve fibers and at nerve endings.

>  <Pathways>
Membrane Transporter/Ion Channel

>  <Target>
Sodium Channel inhibitor;MRP inhibitor

>  <Receptor>
Sodium channel;LCE 1;MRP1

>  <Reference>
1. Ahern CA, et al. Circ Res. 2008 Jan 4;102(1):86-94.

$$$$
614-39-1
  Mrv1561503291623562D          

 19 17  0  0  0  0            999 V2000
    0.4125    0.0000    0.0000 H   0  3  0  0  0  0  0  0  0  0  0  0
    4.8321    0.2101    0.0000 C   0  0  0  0  0  0  0  0  0  0  0  0
    5.2446   -0.5043    0.0000 C   0  0  0  0  0  0  0  0  0  0  0  0
    6.0696   -0.5043    0.0000 C   0  0  0  0  0  0  0  0  0  0  0  0
    6.4821   -1.2188    0.0000 O   0  0  0  0  0  0  0  0  0  0  0  0
    6.4821    0.2101    0.0000 N   0  0  0  0  0  0  0  0  0  0  0  0
    7.3071    0.2101    0.0000 C   0  0  0  0  0  0  0  0  0  0  0  0
    7.7196    0.9246    0.0000 C   0  0  0  0  0  0  0  0  0  0  0  0
    8.5446    0.9246    0.0000 N   0  0  0  0  0  0  0  0  0  0  0  0
    8.9571    1.6391    0.0000 C   0  0  0  0  0  0  0  0  0  0  0  0
    9.7821    1.6391    0.0000 C   0  0  0  0  0  0  0  0  0  0  0  0
    8.9571    0.2101    0.0000 C   0  0  0  0  0  0  0  0  0  0  0  0
    8.5446   -0.5043    0.0000 C   0  0  0  0  0  0  0  0  0  0  0  0
    4.8321   -1.2188    0.0000 C   0  0  0  0  0  0  0  0  0  0  0  0
    4.0071   -1.2188    0.0000 C   0  0  0  0  0  0  0  0  0  0  0  0
    3.5946   -0.5043    0.0000 C   0  0  0  0  0  0  0  0  0  0  0  0
    4.0071    0.2101    0.0000 C   0  0  0  0  0  0  0  0  0  0  0  0
    2.7696   -0.5043    0.0000 N   0  0  0  0  0  0  0  0  0  0  0  0
   -0.4125    0.0000    0.0000 Cl  0  5  0  0  0  0  0  0  0  0  0  0
  2  3  2  0  0  0  0
  3  4  1  0  0  0  0
  4  5  2  0  0  0  0
  4  6  1  0  0  0  0
  6  7  1  0  0  0  0
  7  8  1  0  0  0  0
  8  9  1  0  0  0  0
  9 10  1  0  0  0  0
 10 11  1  0  0  0  0
  9 12  1  0  0  0  0
 12 13  1  0  0  0  0
  3 14  1  0  0  0  0
 14 15  2  0  0  0  0
 15 16  1  0  0  0  0
 16 17  2  0  0  0  0
  2 17  1  0  0  0  0
 16 18  1  0  0  0  0
M  CHG  2   1   1  19  -1
M  END
>  <Name>
Procainamide HCl

>  <CAS>
614-39-1

>  <Formula>
C13H21N3O.HCl

>  <MolWt>
271.79 

>  <Bioactivity>
Procainamide hydrochloride is a class Ia antiarrhythmic drug that is structurally-related to PROCAINE.

>  <Pathways>
Membrane Transporter/Ion Channel; Neuroscience; Chromatin/Epigenetic

>  <Target>
ChE inhibitor;DNA Methyltransferase inhibitor;Sodium Channel inhibitor

>  <Receptor>
ChE;DNA (cytosine-5)-methyltransferase 1 ;Sodium channel

>  <Reference>
1. Wojnarowska Z, et al. J Chem Phys. 2012 Apr 28;136(16):164507. 

$$$$
171596-29-5
  Mrv1561503291623562D          

 29 34  0  0  1  0            999 V2000
   -0.7145   -0.4125    0.0000 C   0  0  2  0  0  0  0  0  0  0  0  0
   -0.7145   -1.2375    0.0000 C   0  0  0  0  0  0  0  0  0  0  0  0
   -0.0000   -1.6500    0.0000 C   0  0  0  0  0  0  0  0  0  0  0  0
   -0.1715   -2.4570    0.0000 C   0  0  0  0  0  0  0  0  0  0  0  0
   -0.9920   -2.5432    0.0000 C   0  0  0  0  0  0  0  0  0  0  0  0
   -1.3276   -1.7895    0.0000 N   0  0  0  0  0  0  0  0  0  0  0  0
   -1.3276   -3.2969    0.0000 C   0  0  0  0  0  0  0  0  0  0  0  0
   -0.8426   -3.9643    0.0000 C   0  0  0  0  0  0  0  0  0  0  0  0
   -0.0222   -3.8781    0.0000 C   0  0  0  0  0  0  0  0  0  0  0  0
    0.3134   -3.1244    0.0000 C   0  0  0  0  0  0  0  0  0  0  0  0
    0.7145   -1.2375    0.0000 C   0  0  0  0  0  0  0  0  0  0  0  0
    0.7145   -0.4125    0.0000 C   0  0  1  0  0  0  0  0  0  0  0  0
   -0.0000    0.0000    0.0000 N   0  0  0  0  0  0  0  0  0  0  0  0
   -0.0000    0.8250    0.0000 C   0  0  0  0  0  0  0  0  0  0  0  0
    0.7145    1.2375    0.0000 C   0  0  0  0  0  0  0  0  0  0  0  0
    1.4289    0.8250    0.0000 N   0  0  0  0  0  0  0  0  0  0  0  0
    1.4289    0.0000    0.0000 C   0  0  0  0  0  0  0  0  0  0  0  0
    2.1434   -0.4125    0.0000 O   0  0  0  0  0  0  0  0  0  0  0  0
    2.1434    1.2375    0.0000 C   0  0  0  0  0  0  0  0  0  0  0  0
   -0.7145    1.2375    0.0000 O   0  0  0  0  0  0  0  0  0  0  0  0
   -1.4289    0.0000    0.0000 C   0  0  0  0  0  0  0  0  0  0  0  0
   -2.1434   -0.4125    0.0000 C   0  0  0  0  0  0  0  0  0  0  0  0
   -2.8579    0.0000    0.0000 C   0  0  0  0  0  0  0  0  0  0  0  0
   -2.8579    0.8250    0.0000 C   0  0  0  0  0  0  0  0  0  0  0  0
   -3.6425    1.0799    0.0000 O   0  0  0  0  0  0  0  0  0  0  0  0
   -4.1274    0.4125    0.0000 C   0  0  0  0  0  0  0  0  0  0  0  0
   -3.6425   -0.2549    0.0000 O   0  0  0  0  0  0  0  0  0  0  0  0
   -2.1434    1.2375    0.0000 C   0  0  0  0  0  0  0  0  0  0  0  0
   -1.4289    0.8250    0.0000 C   0  0  0  0  0  0  0  0  0  0  0  0
  1  2  1  0  0  0  0
  2  3  2  0  0  0  0
  3  4  1  0  0  0  0
  4  5  2  0  0  0  0
  5  6  1  0  0  0  0
  2  6  1  0  0  0  0
  5  7  1  0  0  0  0
  7  8  2  0  0  0  0
  8  9  1  0  0  0  0
  9 10  2  0  0  0  0
  4 10  1  0  0  0  0
  3 11  1  0  0  0  0
 11 12  1  0  0  0  0
 12 13  1  1  0  0  0
  1 13  1  0  0  0  0
 13 14  1  0  0  0  0
 14 15  1  0  0  0  0
 15 16  1  0  0  0  0
 16 17  1  0  0  0  0
 12 17  1  0  0  0  0
 17 18  2  0  0  0  0
 16 19  1  0  0  0  0
 14 20  2  0  0  0  0
  1 21  1  1  0  0  0
 21 22  2  0  0  0  0
 22 23  1  0  0  0  0
 23 24  2  0  0  0  0
 24 25  1  0  0  0  0
 25 26  1  0  0  0  0
 26 27  1  0  0  0  0
 23 27  1  0  0  0  0
 24 28  1  0  0  0  0
 28 29  2  0  0  0  0
 21 29  1  0  0  0  0
M  END
>  <Name>
Cialis

>  <CAS>
171596-29-5

>  <Formula>
C22H19N3O4

>  <MolWt>
389.40 

>  <Bioactivity>
Tadalafil is an orally adminstered drug used to treat male erectile dysfunction (impotence). It is marketed worldwide under the brand name Cialis. It is a phosphodiesterase 5 (PDE5) inhibitor. Tadalafil's distinguishing pharmacologic feature is its longer half-life (17.5 hours) compared with Viagra and Levitra (4-5 hours). This longer half-life results in a longer duration of action and is, in part, responsible for the Cialis nickname of the "weekend pill." This longer half-life also is the basis of current investigation for tadalafil's use in pulmonary arterial hypertension as a once-daily therapy. 

>  <Pathways>
Metabolism

>  <Target>
PDE inhibitor

>  <Receptor>
PDE

>  <Reference>
1. Blount MA, et al. Mol Pharmacol, 2004, 66(1), 144-152.

$$$$
97-77-8
  Mrv1561503291623562D          

 16 15  0  0  0  0            999 V2000
    7.2849    3.3809    0.0000 C   0  0  0  0  0  0  0  0  0  0  0  0
    7.2849    2.5559    0.0000 N   0  0  0  0  0  0  0  0  0  0  0  0
    6.5704    2.1434    0.0000 C   0  0  0  0  0  0  0  0  0  0  0  0
    5.8559    2.5559    0.0000 S   0  0  0  0  0  0  0  0  0  0  0  0
    5.1414    2.1434    0.0000 S   0  0  0  0  0  0  0  0  0  0  0  0
    4.4270    2.5559    0.0000 C   0  0  0  0  0  0  0  0  0  0  0  0
    3.7125    2.1434    0.0000 N   0  0  0  0  0  0  0  0  0  0  0  0
    2.9980    2.5559    0.0000 C   0  0  0  0  0  0  0  0  0  0  0  0
    2.2836    2.1434    0.0000 C   0  0  0  0  0  0  0  0  0  0  0  0
    3.7125    1.3184    0.0000 C   0  0  0  0  0  0  0  0  0  0  0  0
    2.9980    0.9059    0.0000 C   0  0  0  0  0  0  0  0  0  0  0  0
    4.4270    3.3809    0.0000 S   0  0  0  0  0  0  0  0  0  0  0  0
    6.5704    1.3184    0.0000 S   0  0  0  0  0  0  0  0  0  0  0  0
    7.9993    2.1434    0.0000 C   0  0  0  0  0  0  0  0  0  0  0  0
    8.7138    2.5559    0.0000 C   0  0  0  0  0  0  0  0  0  0  0  0
    7.9993    3.7934    0.0000 C   0  0  0  0  0  0  0  0  0  0  0  0
  1  2  1  0  0  0  0
  2  3  1  0  0  0  0
  3  4  1  0  0  0  0
  4  5  1  0  0  0  0
  5  6  1  0  0  0  0
  6  7  1  0  0  0  0
  7  8  1  0  0  0  0
  8  9  1  0  0  0  0
  7 10  1  0  0  0  0
 10 11  1  0  0  0  0
  6 12  2  0  0  0  0
  3 13  2  0  0  0  0
  2 14  1  0  0  0  0
 14 15  1  0  0  0  0
  1 16  1  0  0  0  0
M  END
>  <Name>
Disulfiram

>  <CAS>
97-77-8

>  <Formula>
C10H20N2S4

>  <MolWt>
296.54 

>  <Bioactivity>
Disulfiram is a specific inhibitor of aldehyde-dehydrogenase (ALDH1), used for the treatment of chronic alcoholism by producing an acute sensitivity to alcohol.

>  <Pathways>
Metabolism

>  <Target>
Dehydrogenase inhibitor

>  <Receptor>
ALDH1;DBH

>  <Reference>
1. Mackenzie IS, et al. Arterioscler Thromb Vasc Biol. 2005 Sep; 25(9):1891-5. 

$$$$
102-29-4
  Mrv1561503291623562D          

 11 11  0  0  0  0            999 V2000
    0.7145   -0.4125    0.0000 C   0  0  0  0  0  0  0  0  0  0  0  0
    0.0000   -0.0000    0.0000 C   0  0  0  0  0  0  0  0  0  0  0  0
   -0.0000    0.8250    0.0000 C   0  0  0  0  0  0  0  0  0  0  0  0
    0.7145    1.2375    0.0000 C   0  0  0  0  0  0  0  0  0  0  0  0
    1.4289    0.8250    0.0000 C   0  0  0  0  0  0  0  0  0  0  0  0
    1.4289    0.0000    0.0000 C   0  0  0  0  0  0  0  0  0  0  0  0
    0.7145    2.0625    0.0000 O   0  0  0  0  0  0  0  0  0  0  0  0
    1.4289    2.4750    0.0000 C   0  0  0  0  0  0  0  0  0  0  0  0
    1.4289    3.3000    0.0000 C   0  0  0  0  0  0  0  0  0  0  0  0
    2.1434    2.0625    0.0000 O   0  0  0  0  0  0  0  0  0  0  0  0
   -0.7145   -0.4125    0.0000 O   0  0  0  0  0  0  0  0  0  0  0  0
  1  2  2  0  0  0  0
  2  3  1  0  0  0  0
  3  4  2  0  0  0  0
  4  5  1  0  0  0  0
  5  6  2  0  0  0  0
  1  6  1  0  0  0  0
  4  7  1  0  0  0  0
  7  8  1  0  0  0  0
  8  9  1  0  0  0  0
  8 10  2  0  0  0  0
  2 11  1  0  0  0  0
M  END
>  <Name>
Resorcin monoacetate

>  <CAS>
102-29-4

>  <Formula>
C8H8O3

>  <MolWt>
152.15 

>  <Bioactivity>
Cannabidiol (CBD) is one of at least 85 active cannabinoids identified in cannabis. It is a major phytocannabinoid, accounting for up to 40% of the plant's extract. CBD is considered to have a wider scope of medical applications than tetrahydrocannabinol (THC).

>  <Pathways>
Others

>  <Target>
Others

>  <Receptor>
Others

>  <Reference>
1. Bull Am Pharm Assoc. 1946 Jan-Feb;14:35.

$$$$
111-48-8
  Mrv1561503291623562D          

  7  6  0  0  0  0            999 V2000
    2.4750   -1.4289    0.0000 C   0  0  0  0  0  0  0  0  0  0  0  0
    3.1895   -1.8414    0.0000 C   0  0  0  0  0  0  0  0  0  0  0  0
    3.9039   -1.4289    0.0000 S   0  0  0  0  0  0  0  0  0  0  0  0
    4.6184   -1.8414    0.0000 C   0  0  0  0  0  0  0  0  0  0  0  0
    5.3329   -1.4289    0.0000 C   0  0  0  0  0  0  0  0  0  0  0  0
    6.0474   -1.8414    0.0000 O   0  0  0  0  0  0  0  0  0  0  0  0
    1.7605   -1.8414    0.0000 O   0  0  0  0  0  0  0  0  0  0  0  0
  1  2  1  0  0  0  0
  2  3  1  0  0  0  0
  3  4  1  0  0  0  0
  4  5  1  0  0  0  0
  5  6  1  0  0  0  0
  1  7  1  0  0  0  0
M  END
>  <Name>
Diethanol sulfide

>  <CAS>
111-48-8

>  <Formula>
C4H10O2S

>  <MolWt>
122.19 

>  <Bioactivity>
Thiodiglycol has both polar and nonpolar solvent properties. It is used as a solvent in a variety of applications ranging from dyeing textiles to inks in some ballpoint pens.

>  <Pathways>
Metabolism

>  <Target>
Dehydrogenase

>  <Receptor>
ADH

>  <Reference>
1. Angerhofer RA, et al. Int J Toxicol. 2014 Sep-Oct;33(5):393-402.

$$$$
150-13-0
  Mrv1561503291623562D          

 10 10  0  0  0  0            999 V2000
    1.4289   -0.0000    0.0000 C   0  0  0  0  0  0  0  0  0  0  0  0
    0.7145   -0.4125    0.0000 C   0  0  0  0  0  0  0  0  0  0  0  0
    0.7145   -1.2375    0.0000 C   0  0  0  0  0  0  0  0  0  0  0  0
    1.4289   -1.6500    0.0000 O   0  0  0  0  0  0  0  0  0  0  0  0
    0.0000   -1.6500    0.0000 O   0  0  0  0  0  0  0  0  0  0  0  0
   -0.0000   -0.0000    0.0000 C   0  0  0  0  0  0  0  0  0  0  0  0
   -0.0000    0.8250    0.0000 C   0  0  0  0  0  0  0  0  0  0  0  0
    0.7145    1.2375    0.0000 C   0  0  0  0  0  0  0  0  0  0  0  0
    1.4289    0.8250    0.0000 C   0  0  0  0  0  0  0  0  0  0  0  0
    0.7145    2.0625    0.0000 N   0  0  0  0  0  0  0  0  0  0  0  0
  1  2  2  0  0  0  0
  2  3  1  0  0  0  0
  3  4  1  0  0  0  0
  3  5  2  0  0  0  0
  2  6  1  0  0  0  0
  6  7  2  0  0  0  0
  7  8  1  0  0  0  0
  8  9  2  0  0  0  0
  1  9  1  0  0  0  0
  8 10  1  0  0  0  0
M  END
>  <Name>
4-aminobenzoic acid

>  <CAS>
150-13-0

>  <Formula>
C7H6KNO2

>  <MolWt>
137.14 

>  <Bioactivity>
An aminobenzoic acid isomer that combines with pteridine and GLUTAMIC ACID to form FOLIC ACID. The fact that 4-aminobenzoic acid absorbs light throughout the UVB range has also resulted in its use as an ingredient in SUNSCREENS.

>  <Pathways>
Enzyme

>  <Target>
p-HBH

>  <Receptor>
p-HBH

>  <Reference>
1. Benali-Cherif R, et al. Acta Crystallogr C Struct Chem. 2014 Mar;70(Pt 3):323-5.

$$$$
14882-18-9
  Mrv1561503291623562D          

 12 12  0  0  0  0            999 V2000
   -1.4939    0.2625    0.0000 C   0  0  0  0  0  0  0  0  0  0  0  0
   -1.4939   -0.5625    0.0000 C   0  0  0  0  0  0  0  0  0  0  0  0
   -0.7794   -0.9750    0.0000 C   0  0  0  0  0  0  0  0  0  0  0  0
   -0.0650   -0.5625    0.0000 C   0  0  0  0  0  0  0  0  0  0  0  0
   -0.0650    0.2625    0.0000 C   0  0  0  0  0  0  0  0  0  0  0  0
   -0.7794    0.6750    0.0000 C   0  0  0  0  0  0  0  0  0  0  0  0
    0.6495    0.6750    0.0000 C   0  0  0  0  0  0  0  0  0  0  0  0
    0.6495    1.5000    0.0000 O   0  0  0  0  0  0  0  0  0  0  0  0
    1.3640    0.2625    0.0000 O   0  0  0  0  0  0  0  0  0  0  0  0
    1.3640   -0.5625    0.0000 Bi  0  0  0  0  0  2  0  0  0  0  0  0
    0.6495   -0.9750    0.0000 O   0  0  0  0  0  0  0  0  0  0  0  0
    3.7211    0.0000    0.0000 O   0  0  0  0  0  0  0  0  0  0  0  0
  1  2  2  0  0  0  0
  2  3  1  0  0  0  0
  3  4  2  0  0  0  0
  4  5  1  0  0  0  0
  5  6  2  0  0  0  0
  1  6  1  0  0  0  0
  5  7  1  0  0  0  0
  7  8  2  0  0  0  0
  7  9  1  0  0  0  0
  9 10  1  0  0  0  0
 10 11  1  0  0  0  0
  4 11  1  0  0  0  0
M  END
>  <Name>
Bismuth subsalicylat

>  <CAS>
14882-18-9

>  <Formula>
C7H5BiO4

>  <MolWt>
362.09 

>  <Bioactivity>
Bismuth subsalicylate is used to treat diarrhea in adults and teenagers. It is also used to relieve the symptoms of an upset stomach, such as heartburn, indigestion, and nausea in adults and teenagers.

>  <Pathways>
Neuroscience

>  <Target>
COX inhibitor

>  <Receptor>
prostaglandin G/H Synthase 1/2

>  <Reference>
1. Pitz AM, et al. Gut Microbes. 2015 Mar 4; 6(2):93-100. 

$$$$
T0833
  Mrv1561503291623562D          

  9  9  0  0  0  0            999 V2000
    1.4289    0.8250    0.0000 C   0  0  0  0  0  0  0  0  0  0  0  0
    1.4289    0.0000    0.0000 C   0  0  0  0  0  0  0  0  0  0  0  0
    0.7145   -0.4125    0.0000 C   0  0  0  0  0  0  0  0  0  0  0  0
   -0.0000    0.0000    0.0000 C   0  0  0  0  0  0  0  0  0  0  0  0
   -0.0000    0.8250    0.0000 C   0  0  0  0  0  0  0  0  0  0  0  0
    0.7145    1.2375    0.0000 C   0  0  0  0  0  0  0  0  0  0  0  0
    0.7145    2.0625    0.0000 C   0  0  0  0  0  0  0  0  0  0  0  0
    0.0000    2.4750    0.0000 O   0  0  0  0  0  0  0  0  0  0  0  0
    1.4289    2.4750    0.0000 O   0  0  0  0  0  0  0  0  0  0  0  0
  1  2  2  0  0  0  0
  2  3  1  0  0  0  0
  3  4  2  0  0  0  0
  4  5  1  0  0  0  0
  5  6  2  0  0  0  0
  1  6  1  0  0  0  0
  6  7  1  0  0  0  0
  7  8  1  0  0  0  0
  7  9  2  0  0  0  0
M  END
>  <Name>
Benzoic acid

>  <CAS>
65-85-0

>  <Formula>
C7H6O2

>  <MolWt>
122.12 

>  <Bioactivity>
Benzoic acid is a Nitrogen Binding Agent. The mechanism of action of benzoic acid is as an Ammonium Ion Binding Activity.

>  <Pathways>
Microbiology & Virology

>  <Target>
Antifungal

>  <Receptor>
Others

>  <Reference>
1. Ohtsuki S, et al. J Neurochem. 2002 Oct;83(1):57-66. 

$$$$
87-99-0
  Mrv1561503291623562D          

 10  9  0  0  0  0            999 V2000
    2.4750   -1.4289    0.0000 C   0  0  0  0  0  0  0  0  0  0  0  0
    3.1895   -1.8414    0.0000 C   0  0  0  0  0  0  0  0  0  0  0  0
    3.9039   -1.4289    0.0000 C   0  0  0  0  0  0  0  0  0  0  0  0
    4.6184   -1.8414    0.0000 C   0  0  0  0  0  0  0  0  0  0  0  0
    5.3329   -1.4289    0.0000 C   0  0  0  0  0  0  0  0  0  0  0  0
    6.0474   -1.8414    0.0000 O   0  0  0  0  0  0  0  0  0  0  0  0
    4.6184   -2.6664    0.0000 O   0  0  0  0  0  0  0  0  0  0  0  0
    3.9039   -0.6039    0.0000 O   0  0  0  0  0  0  0  0  0  0  0  0
    3.1895   -2.6664    0.0000 O   0  0  0  0  0  0  0  0  0  0  0  0
    1.7605   -1.8414    0.0000 O   0  0  0  0  0  0  0  0  0  0  0  0
  1  2  1  0  0  0  0
  2  3  1  0  0  0  0
  3  4  1  0  0  0  0
  4  5  1  0  0  0  0
  5  6  1  0  0  0  0
  4  7  1  0  0  0  0
  3  8  1  0  0  0  0
  2  9  1  0  0  0  0
  1 10  1  0  0  0  0
M  END
>  <Name>
Xylitol

>  <CAS>
87-99-0

>  <Formula>
C5H12O5

>  <MolWt>
152.15 

>  <Bioactivity>
Xylitol is a sugar alcohol used as a sweetener.

>  <Pathways>
Others

>  <Target>
Others

>  <Receptor>
Others

>  <Reference>
1. Azarpazhooh A, et al. Cochrane Database Syst Rev. 2011 Nov 9;(11):CD007095. 

$$$$
543-15-7
  Mrv1561503291623562D          

 12  9  0  0  0  0            999 V2000
    0.4125    0.0000    0.0000 H   0  3  0  0  0  0  0  0  0  0  0  0
    4.0071    0.5716    0.0000 C   0  0  0  0  0  0  0  0  0  0  0  0
    3.5946    1.2860    0.0000 C   0  0  0  0  0  0  0  0  0  0  0  0
    3.1821    2.0005    0.0000 O   0  0  0  0  0  0  0  0  0  0  0  0
    2.8802    0.8735    0.0000 C   0  0  0  0  0  0  0  0  0  0  0  0
    4.3091    1.6985    0.0000 C   0  0  0  0  0  0  0  0  0  0  0  0
    3.5946   -0.1429    0.0000 C   0  0  0  0  0  0  0  0  0  0  0  0
    4.0071   -0.8574    0.0000 C   0  0  0  0  0  0  0  0  0  0  0  0
    3.5946   -1.5718    0.0000 C   0  0  0  0  0  0  0  0  0  0  0  0
    4.0071   -2.2863    0.0000 N   0  0  0  0  0  0  0  0  0  0  0  0
    2.7696   -1.5718    0.0000 C   0  0  0  0  0  0  0  0  0  0  0  0
   -0.4125    0.0000    0.0000 Cl  0  5  0  0  0  0  0  0  0  0  0  0
  2  3  1  0  0  0  0
  3  4  1  0  0  0  0
  3  5  1  0  0  0  0
  3  6  1  0  0  0  0
  2  7  1  0  0  0  0
  7  8  1  0  0  0  0
  8  9  1  0  0  0  0
  9 10  1  0  0  0  0
  9 11  1  0  0  0  0
M  CHG  2   1   1  12  -1
M  END
>  <Name>
Heptaminol HCl

>  <CAS>
543-15-7

>  <Formula>
C8H20ClNO

>  <MolWt>
181.71 

>  <Bioactivity>
An amino alcohol that has been used as a myocardial stimulant and vasodilator and to relieve bronchospasm. Its most common therapeutic use is in orthostatic hypotension. The mechanism of heptaminol's therapeutic actions is not well understood although it has been suggested to affect catecholamine release or calcium metabolism. ( )

>  <Pathways>
Metabolism

>  <Target>
PDE inhibitor

>  <Receptor>
PDE

>  <Reference>
1. GARRETT J. Arch Int Pharmacodyn Ther. 1954 Nov 1;100(1):17-34.

$$$$
59-67-6
  Mrv1561503291623562D          

  9  9  0  0  0  0            999 V2000
    1.4289    0.8250    0.0000 C   0  0  0  0  0  0  0  0  0  0  0  0
    1.4289    0.0000    0.0000 C   0  0  0  0  0  0  0  0  0  0  0  0
    0.7145   -0.4125    0.0000 C   0  0  0  0  0  0  0  0  0  0  0  0
   -0.0000    0.0000    0.0000 N   0  0  0  0  0  0  0  0  0  0  0  0
   -0.0000    0.8250    0.0000 C   0  0  0  0  0  0  0  0  0  0  0  0
    0.7145    1.2375    0.0000 C   0  0  0  0  0  0  0  0  0  0  0  0
    0.7145    2.0625    0.0000 C   0  0  0  0  0  0  0  0  0  0  0  0
    0.0000    2.4750    0.0000 O   0  0  0  0  0  0  0  0  0  0  0  0
    1.4289    2.4750    0.0000 O   0  0  0  0  0  0  0  0  0  0  0  0
  1  2  2  0  0  0  0
  2  3  1  0  0  0  0
  3  4  2  0  0  0  0
  4  5  1  0  0  0  0
  5  6  2  0  0  0  0
  1  6  1  0  0  0  0
  6  7  1  0  0  0  0
  7  8  1  0  0  0  0
  7  9  2  0  0  0  0
M  END
>  <Name>
Nicotinic acid

>  <CAS>
59-67-6

>  <Formula>
C6H5NO2

>  <MolWt>
123.11 

>  <Bioactivity>
A water-soluble vitamin of the B complex occurring in various animal and plant tissues. It is required by the body for the formation of coenzymes NAD and NADP. It has PELLAGRA-curative, vasodilating, and antilipemic properties.  

>  <Pathways>
Vitamin

>  <Target>
VB

>  <Receptor>
VB3

>  <Reference>
1. Wise A, et al. J Biol Chem. 2003 Mar 14;278(11):9869-74. 

$$$$
3644-61-9
  Mrv1561503291623562D          

 20 19  0  0  0  0            999 V2000
    0.4125    0.0000    0.0000 H   0  3  0  0  0  0  0  0  0  0  0  0
    3.7272    1.3062    0.0000 C   0  0  0  0  0  0  0  0  0  0  0  0
    3.0127    0.8937    0.0000 C   0  0  0  0  0  0  0  0  0  0  0  0
    3.0127    0.0687    0.0000 C   0  0  0  0  0  0  0  0  0  0  0  0
    2.2982   -0.3438    0.0000 O   0  0  0  0  0  0  0  0  0  0  0  0
    3.7272   -0.3438    0.0000 C   0  0  0  0  0  0  0  0  0  0  0  0
    3.7272   -1.1688    0.0000 C   0  0  0  0  0  0  0  0  0  0  0  0
    4.4416   -1.5813    0.0000 N   0  0  0  0  0  0  0  0  0  0  0  0
    5.1561   -1.1688    0.0000 C   0  0  0  0  0  0  0  0  0  0  0  0
    5.8706   -1.5813    0.0000 C   0  0  0  0  0  0  0  0  0  0  0  0
    5.8706   -2.4063    0.0000 C   0  0  0  0  0  0  0  0  0  0  0  0
    5.1561   -2.8188    0.0000 C   0  0  0  0  0  0  0  0  0  0  0  0
    4.4416   -2.4063    0.0000 C   0  0  0  0  0  0  0  0  0  0  0  0
    4.4416    0.0687    0.0000 C   0  0  0  0  0  0  0  0  0  0  0  0
    2.2982    1.3062    0.0000 C   0  0  0  0  0  0  0  0  0  0  0  0
    2.2982    2.1312    0.0000 C   0  0  0  0  0  0  0  0  0  0  0  0
    3.0127    2.5437    0.0000 C   0  0  0  0  0  0  0  0  0  0  0  0
    3.7272    2.1312    0.0000 C   0  0  0  0  0  0  0  0  0  0  0  0
    3.0127    3.3687    0.0000 C   0  0  0  0  0  0  0  0  0  0  0  0
   -0.4125    0.0000    0.0000 Cl  0  5  0  0  0  0  0  0  0  0  0  0
  2  3  2  0  0  0  0
  3  4  1  0  0  0  0
  4  5  2  0  0  0  0
  4  6  1  0  0  0  0
  6  7  1  0  0  0  0
  7  8  1  0  0  0  0
  8  9  1  0  0  0  0
  9 10  1  0  0  0  0
 10 11  1  0  0  0  0
 11 12  1  0  0  0  0
 12 13  1  0  0  0  0
  8 13  1  0  0  0  0
  6 14  1  0  0  0  0
  3 15  1  0  0  0  0
 15 16  2  0  0  0  0
 16 17  1  0  0  0  0
 17 18  2  0  0  0  0
  2 18  1  0  0  0  0
 17 19  1  0  0  0  0
M  CHG  2   1   1  20  -1
M  END
>  <Name>
Tolperisone HCl

>  <CAS>
3644-61-9

>  <Formula>
C16H24ClNO

>  <MolWt>
281.82 

>  <Bioactivity>
Membrane Transporter/Ion Channel  Sodium Channel inhibitor Sodium Channel


>  <Pathways>
Membrane Transporter/Ion Channel

>  <Target>
Sodium Channel inhibitor

>  <Receptor>
Sodium Channel

>  <Reference>
1. Hofer D, et al. Eur J Pharmacol, 2006, 538(1-3), 5-14.

$$$$
53-60-1
  Mrv1561503291623562D          

 22 22  0  0  0  0            999 V2000
    0.4125    0.0000    0.0000 H   0  3  0  0  0  0  0  0  0  0  0  0
    5.1561   -0.9694    0.0000 C   0  0  0  0  0  0  0  0  0  0  0  0
    4.4416   -0.5569    0.0000 C   0  0  0  0  0  0  0  0  0  0  0  0
    4.4416    0.2681    0.0000 N   0  0  0  0  0  0  0  0  0  0  0  0
    3.7272    0.6806    0.0000 C   0  0  0  0  0  0  0  0  0  0  0  0
    3.0127    0.2681    0.0000 C   0  0  0  0  0  0  0  0  0  0  0  0
    3.0127   -0.5569    0.0000 S   0  0  0  0  0  0  0  0  0  0  0  0
    3.7272   -0.9694    0.0000 C   0  0  0  0  0  0  0  0  0  0  0  0
    3.7272   -1.7944    0.0000 C   0  0  0  0  0  0  0  0  0  0  0  0
    4.4416   -2.2069    0.0000 C   0  0  0  0  0  0  0  0  0  0  0  0
    5.1561   -1.7944    0.0000 C   0  0  0  0  0  0  0  0  0  0  0  0
    2.2982    0.6806    0.0000 C   0  0  0  0  0  0  0  0  0  0  0  0
    2.2982    1.5056    0.0000 C   0  0  0  0  0  0  0  0  0  0  0  0
    3.0127    1.9181    0.0000 C   0  0  0  0  0  0  0  0  0  0  0  0
    3.7272    1.5056    0.0000 C   0  0  0  0  0  0  0  0  0  0  0  0
    5.1561    0.6806    0.0000 C   0  0  0  0  0  0  0  0  0  0  0  0
    5.8706    0.2681    0.0000 C   0  0  0  0  0  0  0  0  0  0  0  0
    6.5850    0.6806    0.0000 C   0  0  0  0  0  0  0  0  0  0  0  0
    7.2995    0.2681    0.0000 N   0  0  0  0  0  0  0  0  0  0  0  0
    8.0140    0.6806    0.0000 C   0  0  0  0  0  0  0  0  0  0  0  0
    7.2995   -0.5569    0.0000 C   0  0  0  0  0  0  0  0  0  0  0  0
   -0.4125    0.0000    0.0000 Cl  0  5  0  0  0  0  0  0  0  0  0  0
  2  3  2  0  0  0  0
  3  4  1  0  0  0  0
  4  5  1  0  0  0  0
  5  6  2  0  0  0  0
  6  7  1  0  0  0  0
  7  8  1  0  0  0  0
  3  8  1  0  0  0  0
  8  9  2  0  0  0  0
  9 10  1  0  0  0  0
 10 11  2  0  0  0  0
  2 11  1  0  0  0  0
  6 12  1  0  0  0  0
 12 13  2  0  0  0  0
 13 14  1  0  0  0  0
 14 15  2  0  0  0  0
  5 15  1  0  0  0  0
  4 16  1  0  0  0  0
 16 17  1  0  0  0  0
 17 18  1  0  0  0  0
 18 19  1  0  0  0  0
 19 20  1  0  0  0  0
 19 21  1  0  0  0  0
M  CHG  2   1   1  22  -1
M  END
>  <Name>
Promazine HCl

>  <CAS>
53-60-1

>  <Formula>
C17H21ClN2S

>  <MolWt>
320.88 

>  <Bioactivity>
A phenothiazine with actions similar to CHLORPROMAZINE but with less antipsychotic activity. It is primarily used in short-term treatment of disturbed behavior and as an antiemetic.


>  <Pathways>
Neuroscience

>  <Target>
Dopamine Receptor antagonist;Adrenergic Receptor antagonist;AChR antagonist;5-HT receptor antagonist

>  <Receptor>
Dopamine receptor;Adrenergic receptor ;Muscarinic AChR;5-HT receptor

>  <Reference>
1. VLAVIANOS G, FINK L. Dis Nerv Syst. 1960 Sep;21:515-7.

$$$$
149-91-7
  Mrv1561503291623562D          

 12 12  0  0  0  0            999 V2000
    1.4289    0.8250    0.0000 C   0  0  0  0  0  0  0  0  0  0  0  0
    1.4289    0.0000    0.0000 C   0  0  0  0  0  0  0  0  0  0  0  0
    0.7145   -0.4125    0.0000 C   0  0  0  0  0  0  0  0  0  0  0  0
   -0.0000    0.0000    0.0000 C   0  0  0  0  0  0  0  0  0  0  0  0
   -0.7145   -0.4125    0.0000 O   0  0  0  0  0  0  0  0  0  0  0  0
   -0.0000    0.8250    0.0000 C   0  0  0  0  0  0  0  0  0  0  0  0
    0.7145    1.2375    0.0000 C   0  0  0  0  0  0  0  0  0  0  0  0
    0.7145    2.0625    0.0000 O   0  0  0  0  0  0  0  0  0  0  0  0
   -0.7145    1.2375    0.0000 O   0  0  0  0  0  0  0  0  0  0  0  0
    2.1434   -0.4125    0.0000 C   0  0  0  0  0  0  0  0  0  0  0  0
    2.8579    0.0000    0.0000 O   0  0  0  0  0  0  0  0  0  0  0  0
    2.1434   -1.2375    0.0000 O   0  0  0  0  0  0  0  0  0  0  0  0
  1  2  2  0  0  0  0
  2  3  1  0  0  0  0
  3  4  2  0  0  0  0
  4  5  1  0  0  0  0
  4  6  1  0  0  0  0
  6  7  2  0  0  0  0
  1  7  1  0  0  0  0
  7  8  1  0  0  0  0
  6  9  1  0  0  0  0
  2 10  1  0  0  0  0
 10 11  2  0  0  0  0
 10 12  1  0  0  0  0
M  END
>  <Name>
Gallic acid

>  <CAS>
149-91-7

>  <Formula>
C7H6O5

>  <MolWt>
170.12 

>  <Bioactivity>
Gallic acid is found in almost all plants. Plants known for their high gallic acid content include gallnuts,grapes,tea,hops and oak bark.

>  <Pathways>
Others

>  <Target>
Others

>  <Receptor>
Others

>  <Reference>
1. Liu Y, et al. Bioorg Med Chem Lett. 2013 Dec 1;23(23):6336-40. 

$$$$
573-20-6
  Mrv1561503291623562D          

 19 20  0  0  0  0            999 V2000
   -0.0000    0.0000    0.0000 C   0  0  0  0  0  0  0  0  0  0  0  0
   -0.7145   -0.4125    0.0000 C   0  0  0  0  0  0  0  0  0  0  0  0
   -0.7145   -1.2375    0.0000 C   0  0  0  0  0  0  0  0  0  0  0  0
   -0.0000   -1.6500    0.0000 C   0  0  0  0  0  0  0  0  0  0  0  0
    0.7145   -1.2375    0.0000 C   0  0  0  0  0  0  0  0  0  0  0  0
    0.7145   -0.4125    0.0000 C   0  0  0  0  0  0  0  0  0  0  0  0
    1.4289    0.0000    0.0000 C   0  0  0  0  0  0  0  0  0  0  0  0
    2.1434   -0.4125    0.0000 C   0  0  0  0  0  0  0  0  0  0  0  0
    2.1434   -1.2375    0.0000 C   0  0  0  0  0  0  0  0  0  0  0  0
    1.4289   -1.6500    0.0000 C   0  0  0  0  0  0  0  0  0  0  0  0
    1.4289   -2.4750    0.0000 O   0  0  0  0  0  0  0  0  0  0  0  0
    2.1434   -2.8875    0.0000 C   0  0  0  0  0  0  0  0  0  0  0  0
    2.1434   -3.7125    0.0000 C   0  0  0  0  0  0  0  0  0  0  0  0
    2.8579   -2.4750    0.0000 O   0  0  0  0  0  0  0  0  0  0  0  0
    2.8579   -1.6500    0.0000 C   0  0  0  0  0  0  0  0  0  0  0  0
    1.4289    0.8250    0.0000 O   0  0  0  0  0  0  0  0  0  0  0  0
    2.1434    1.2375    0.0000 C   0  0  0  0  0  0  0  0  0  0  0  0
    2.1434    2.0625    0.0000 C   0  0  0  0  0  0  0  0  0  0  0  0
    2.8579    0.8250    0.0000 O   0  0  0  0  0  0  0  0  0  0  0  0
  1  2  2  0  0  0  0
  2  3  1  0  0  0  0
  3  4  2  0  0  0  0
  4  5  1  0  0  0  0
  5  6  2  0  0  0  0
  1  6  1  0  0  0  0
  6  7  1  0  0  0  0
  7  8  2  0  0  0  0
  8  9  1  0  0  0  0
  9 10  2  0  0  0  0
  5 10  1  0  0  0  0
 10 11  1  0  0  0  0
 11 12  1  0  0  0  0
 12 13  1  0  0  0  0
 12 14  2  0  0  0  0
  9 15  1  0  0  0  0
  7 16  1  0  0  0  0
 16 17  1  0  0  0  0
 17 18  1  0  0  0  0
 17 19  2  0  0  0  0
M  END
>  <Name>
Menadiol Diacetate

>  <CAS>
573-20-6

>  <Formula>
C15H14O4

>  <MolWt>
258.27 

>  <Bioactivity>
N/A

>  <Pathways>
Vitamin

>  <Target>
VK

>  <Receptor>
VK4

>  <Reference>
N/A

$$$$
T0932
  Mrv1561503291623562D          

 30 32  0  0  1  0            999 V2000
    0.5635   -0.9760    0.0000 C   0  0  2  0  0  0  0  0  0  0  0  0
    0.5635   -0.1510    0.0000 N   0  0  0  0  0  0  0  0  0  0  0  0
    1.2780    0.2615    0.0000 C   0  0  0  0  0  0  0  0  0  0  0  0
    1.9924   -0.1510    0.0000 C   0  0  0  0  0  0  0  0  0  0  0  0
    2.7069    0.2615    0.0000 C   0  0  0  0  0  0  0  0  0  0  0  0
    3.4214   -0.1510    0.0000 C   0  0  0  0  0  0  0  0  0  0  0  0
    1.9924   -0.9760    0.0000 C   0  0  0  0  0  0  0  0  0  0  0  0
    1.2780   -1.3885    0.0000 S   0  0  0  0  0  0  0  0  0  0  0  0
    1.2780    1.0865    0.0000 C   0  0  0  0  0  0  0  0  0  0  0  0
    1.9924    1.4990    0.0000 O   0  0  0  0  0  0  0  0  0  0  0  0
    0.5635    1.4990    0.0000 O   0  0  0  0  0  0  0  0  0  0  0  0
   -0.2615   -0.1510    0.0000 C   0  0  0  0  0  0  0  0  0  0  0  0
   -0.8449    0.4324    0.0000 O   0  0  0  0  0  0  0  0  0  0  0  0
   -0.2615   -0.9760    0.0000 C   0  0  1  0  0  0  0  0  0  0  0  0
   -0.8449   -1.5593    0.0000 N   0  0  0  0  0  0  0  0  0  0  0  0
   -0.6314   -2.3562    0.0000 C   0  0  0  0  0  0  0  0  0  0  0  0
   -1.2147   -2.9396    0.0000 C   0  0  0  0  0  0  0  0  0  0  0  0
   -2.0116   -2.7261    0.0000 C   0  0  0  0  0  0  0  0  0  0  0  0
   -2.6527   -3.2453    0.0000 C   0  0  0  0  0  0  0  0  0  0  0  0
   -3.3447   -2.7959    0.0000 S   0  0  0  0  0  0  0  0  0  0  0  0
   -3.1311   -1.9990    0.0000 C   0  0  0  0  0  0  0  0  0  0  0  0
   -2.3073   -1.9559    0.0000 N   0  0  0  0  0  0  0  0  0  0  0  0
   -3.6503   -1.3579    0.0000 N   0  0  0  0  0  0  0  0  0  0  0  0
   -1.0012   -3.7365    0.0000 N   0  0  0  0  0  0  0  0  0  0  0  0
   -0.2043   -3.9500    0.0000 O   0  0  0  0  0  0  0  0  0  0  0  0
    0.3791   -3.3667    0.0000 C   0  0  0  0  0  0  0  0  0  0  0  0
    1.1760   -3.5802    0.0000 C   0  0  0  0  0  0  0  0  0  0  0  0
    1.3895   -4.3771    0.0000 O   0  0  0  0  0  0  0  0  0  0  0  0
    1.7593   -2.9968    0.0000 O   0  0  0  0  0  0  0  0  0  0  0  0
    0.1655   -2.5698    0.0000 O   0  0  0  0  0  0  0  0  0  0  0  0
  1  2  1  6  0  0  0
  2  3  1  0  0  0  0
  3  4  2  0  0  0  0
  4  5  1  0  0  0  0
  5  6  2  0  0  0  0
  4  7  1  0  0  0  0
  7  8  1  0  0  0  0
  1  8  1  0  0  0  0
  3  9  1  0  0  0  0
  9 10  1  0  0  0  0
  9 11  2  0  0  0  0
  2 12  1  0  0  0  0
 12 13  2  0  0  0  0
 12 14  1  0  0  0  0
  1 14  1  0  0  0  0
 14 15  1  6  0  0  0
 15 16  1  0  0  0  0
 16 17  1  0  0  0  0
 17 18  1  0  0  0  0
 18 19  2  0  0  0  0
 19 20  1  0  0  0  0
 20 21  1  0  0  0  0
 21 22  2  0  0  0  0
 18 22  1  0  0  0  0
 21 23  1  0  0  0  0
 17 24  2  0  0  0  0
 24 25  1  0  0  0  0
 25 26  1  0  0  0  0
 26 27  1  0  0  0  0
 27 28  1  0  0  0  0
 27 29  2  0  0  0  0
 16 30  2  0  0  0  0
M  END
>  <Name>
Cefixime

>  <CAS>
79350-37-1

>  <Formula>
C16H15N5O7S2

>  <MolWt>
453.45 

>  <Bioactivity>
Cefixime, an antibiotic, is a third-generation cephalosporin like ceftriaxone and cefotaxime. Cefixime is highly stable in the presence of beta-lactamase enzymes. As a result, many organisms resistant to penicillins and some cephalosporins due to the presence of beta-lactamases, may be susceptible to cefixime. The antibacterial effect of cefixime results from inhibition of mucopeptide synthesis in the bacterial cell wall.


>  <Pathways>
Microbiology & Virology

>  <Target>
Antibiotic

>  <Receptor>
PBPs

>  <Reference>
1. Takahata S, et al. Antimicrob Agents Chemother. 2006 Nov;50(11):3638-45. 

$$$$
87-89-8
  Mrv1561503291623562D          

 12 12  0  0  0  0            999 V2000
    0.7145    2.0625    0.0000 O   0  0  0  0  0  0  0  0  0  0  0  0
    0.7145    1.2375    0.0000 C   0  0  0  0  0  0  0  0  0  0  0  0
    1.4289    0.8250    0.0000 C   0  0  0  0  0  0  0  0  0  0  0  0
    1.4289    0.0000    0.0000 C   0  0  0  0  0  0  0  0  0  0  0  0
    0.7145   -0.4125    0.0000 C   0  0  0  0  0  0  0  0  0  0  0  0
    0.7145   -1.2375    0.0000 O   0  0  0  0  0  0  0  0  0  0  0  0
    0.0000   -0.0000    0.0000 C   0  0  0  0  0  0  0  0  0  0  0  0
    0.0000    0.8250    0.0000 C   0  0  0  0  0  0  0  0  0  0  0  0
   -0.7145    1.2375    0.0000 O   0  0  0  0  0  0  0  0  0  0  0  0
   -0.7145   -0.4125    0.0000 O   0  0  0  0  0  0  0  0  0  0  0  0
    2.1434   -0.4125    0.0000 O   0  0  0  0  0  0  0  0  0  0  0  0
    2.1434    1.2375    0.0000 O   0  0  0  0  0  0  0  0  0  0  0  0
  1  2  1  0  0  0  0
  2  3  1  0  0  0  0
  3  4  1  0  0  0  0
  4  5  1  0  0  0  0
  5  6  1  0  0  0  0
  5  7  1  0  0  0  0
  7  8  1  0  0  0  0
  2  8  1  0  0  0  0
  8  9  1  0  0  0  0
  7 10  1  0  0  0  0
  4 11  1  0  0  0  0
  3 12  1  0  0  0  0
M  END
>  <Name>
Inositol

>  <CAS>
87-89-8

>  <Formula>
C6H12O6

>  <MolWt>
180.16 

>  <Bioactivity>
An isomer of glucose that has traditionally been considered to be a B vitamin although it has an uncertain status as a vitamin and a deficiency syndrome has not been identified in man. (From Martindale, The Extra Pharmacopoeia, 30th ed, p1379) Inositol phospholipids are important in signal transduction. 


>  <Pathways>
Vitamin

>  <Target>
VB

>  <Receptor>
VB

>  <Reference>
1. Chen X, et al. Nucleic Acids Res. 2002 Jan 1; 30(1):412-5. 

$$$$
590-46-5
  Mrv1561503291623562D          

  9  7  0  0  0  0            999 V2000
    0.4641   -0.0893    0.0000 C   0  0  0  0  0  0  0  0  0  0  0  0
    0.0516    0.6252    0.0000 N   0  3  0  0  0  0  0  0  0  0  0  0
   -0.3609    1.3396    0.0000 C   0  0  0  0  0  0  0  0  0  0  0  0
   -0.6629    0.2127    0.0000 C   0  0  0  0  0  0  0  0  0  0  0  0
    0.7660    1.0377    0.0000 C   0  0  0  0  0  0  0  0  0  0  0  0
    0.0516   -0.8038    0.0000 C   0  0  0  0  0  0  0  0  0  0  0  0
    0.4641   -1.5183    0.0000 O   0  0  0  0  0  0  0  0  0  0  0  0
   -0.7734   -0.8038    0.0000 O   0  0  0  0  0  0  0  0  0  0  0  0
    3.1232    0.0000    0.0000 Cl  0  5  0  0  0  0  0  0  0  0  0  0
  1  2  1  0  0  0  0
  2  3  1  0  0  0  0
  2  4  1  0  0  0  0
  2  5  1  0  0  0  0
  1  6  1  0  0  0  0
  6  7  1  0  0  0  0
  6  8  2  0  0  0  0
M  CHG  2   2   1   9  -1
M  END
>  <Name>
Betaine HCl

>  <CAS>
590-46-5

>  <Formula>
C5H12ClNO2

>  <MolWt>
153.61 

>  <Bioactivity>
A naturally occurring compound that has been of interest for its role in osmoregulation. As a drug, betaine hydrochloride has been used as a source of hydrochloric acid in the treatment of hypochlorhydria. Betaine has also been used in the treatment of liver disorders, for hyperkalemia, for homocystinuria, and for gastrointestinal disturbances. 

>  <Pathways>
Others

>  <Target>
Glycine betaine-binding periplasmic protein,Circadian clock protein KaiB

>  <Receptor>
Glycine betaine-binding periplasmic protein,Circadian clock protein KaiB

>  <Reference>
1. Lee I. Biochem Biophys Res Commun. 2015 Jan 9;456(2):621-5. 

$$$$
T0069
  Mrv1561503291623562D          

  8  8  0  0  0  0            999 V2000
    0.7145    2.0625    0.0000 O   0  0  0  0  0  0  0  0  0  0  0  0
    0.7145    1.2375    0.0000 C   0  0  0  0  0  0  0  0  0  0  0  0
    1.4289    0.8250    0.0000 N   0  0  0  0  0  0  0  0  0  0  0  0
    1.4289    0.0000    0.0000 C   0  0  0  0  0  0  0  0  0  0  0  0
    0.7145   -0.4125    0.0000 N   0  0  0  0  0  0  0  0  0  0  0  0
    0.0000   -0.0000    0.0000 C   0  0  0  0  0  0  0  0  0  0  0  0
    0.0000    0.8250    0.0000 C   0  0  0  0  0  0  0  0  0  0  0  0
    2.1434   -0.4125    0.0000 O   0  0  0  0  0  0  0  0  0  0  0  0
  1  2  2  0  0  0  0
  2  3  1  0  0  0  0
  3  4  1  0  0  0  0
  4  5  1  0  0  0  0
  5  6  1  0  0  0  0
  6  7  2  0  0  0  0
  2  7  1  0  0  0  0
  4  8  2  0  0  0  0
M  END
>  <Name>
Uracil

>  <CAS>
66-22-8

>  <Formula>
C4H4N2O2

>  <MolWt>
112.09 

>  <Bioactivity>
Uracil is one of the four nucleobases in the nucleic acid of RNA can be used for drug delivery and as a pharmaceutical.

>  <Pathways>
DNA Damage/DNA Repair

>  <Target>
RNA synthesis

>  <Receptor>
RNA

>  <Reference>
1. Imming P, et al. Nat Rev Drug Discov. 2006 Oct; 5(10):821-34. 


$$$$
107-35-7
  Mrv1561503291623562D          

  7  6  0  0  0  0            999 V2000
    0.1105   -1.2375    0.0000 C   0  0  0  0  0  0  0  0  0  0  0  0
    0.1105   -2.0625    0.0000 N   0  0  0  0  0  0  0  0  0  0  0  0
    0.8250   -0.8250    0.0000 C   0  0  0  0  0  0  0  0  0  0  0  0
    0.8250    0.0000    0.0000 S   0  0  0  0  0  0  0  0  0  0  0  0
    0.8250    0.8250    0.0000 O   0  0  0  0  0  0  0  0  0  0  0  0
    1.6500   -0.0000    0.0000 O   0  0  0  0  0  0  0  0  0  0  0  0
    0.0000    0.0000    0.0000 O   0  0  0  0  0  0  0  0  0  0  0  0
  1  2  1  0  0  0  0
  1  3  1  0  0  0  0
  3  4  1  0  0  0  0
  4  5  2  0  0  0  0
  4  6  2  0  0  0  0
  4  7  1  0  0  0  0
M  END
>  <Name>
Taurine

>  <CAS>
107-35-7

>  <Formula>
C2H7NO3S

>  <MolWt>
125.15 

>  <Bioactivity>
A conditionally essential nutrient, important during mammalian development. It is present in milk but is isolated mostly from ox bile and strongly conjugates bile acids. 

>  <Pathways>
Metabolism

>  <Target>
Lipid

>  <Receptor>
LDL,VLDL

>  <Reference>
1. Huxtable RJ. Prog Neurobiol, 1989, 32(6), 471-533.

$$$$
3380-34-5
  Mrv1561503291623562D          

 17 18  0  0  0  0            999 V2000
   -0.0000   -1.6500    0.0000 C   0  0  0  0  0  0  0  0  0  0  0  0
   -0.0000   -2.4750    0.0000 C   0  0  0  0  0  0  0  0  0  0  0  0
   -0.7145   -2.8875    0.0000 C   0  0  0  0  0  0  0  0  0  0  0  0
   -1.4289   -2.4750    0.0000 C   0  0  0  0  0  0  0  0  0  0  0  0
   -1.4289   -1.6500    0.0000 C   0  0  0  0  0  0  0  0  0  0  0  0
   -0.7145   -1.2375    0.0000 C   0  0  0  0  0  0  0  0  0  0  0  0
   -0.7145   -0.4125    0.0000 O   0  0  0  0  0  0  0  0  0  0  0  0
   -1.4289    0.0000    0.0000 C   0  0  0  0  0  0  0  0  0  0  0  0
   -2.1434   -0.4125    0.0000 C   0  0  0  0  0  0  0  0  0  0  0  0
   -2.8579    0.0000    0.0000 C   0  0  0  0  0  0  0  0  0  0  0  0
   -2.8579    0.8250    0.0000 C   0  0  0  0  0  0  0  0  0  0  0  0
   -2.1434    1.2375    0.0000 C   0  0  0  0  0  0  0  0  0  0  0  0
   -1.4289    0.8250    0.0000 C   0  0  0  0  0  0  0  0  0  0  0  0
   -0.7145    1.2375    0.0000 Cl  0  0  0  0  0  0  0  0  0  0  0  0
   -3.5724    1.2375    0.0000 Cl  0  0  0  0  0  0  0  0  0  0  0  0
   -2.1434   -1.2375    0.0000 O   0  0  0  0  0  0  0  0  0  0  0  0
   -0.7145   -3.7125    0.0000 Cl  0  0  0  0  0  0  0  0  0  0  0  0
  1  2  2  0  0  0  0
  2  3  1  0  0  0  0
  3  4  2  0  0  0  0
  4  5  1  0  0  0  0
  5  6  2  0  0  0  0
  1  6  1  0  0  0  0
  6  7  1  0  0  0  0
  7  8  1  0  0  0  0
  8  9  2  0  0  0  0
  9 10  1  0  0  0  0
 10 11  2  0  0  0  0
 11 12  1  0  0  0  0
 12 13  2  0  0  0  0
  8 13  1  0  0  0  0
 13 14  1  0  0  0  0
 11 15  1  0  0  0  0
  5 16  1  0  0  0  0
  3 17  1  0  0  0  0
M  END
>  <Name>
Triclosan

>  <CAS>
3380-34-5

>  <Formula>
C12H7Cl3O2

>  <MolWt>
289.54 

>  <Bioactivity>
A diphenyl ether derivative used in cosmetics and toilet soaps as an antiseptic. It has some bacteriostatic and fungistatic action.  

>  <Pathways>
Metabolism

>  <Target>
Fatty Acid Synthase inhibitors

>  <Receptor>
NADPH

>  <Reference>
1. Berman HM, et al. Nucleic Acids Res. 2000 Jan 1; 28(1):235-42. 

$$$$
69-93-2
  Mrv1561503291623562D          

 12 13  0  0  0  0            999 V2000
    0.7145   -1.2375    0.0000 O   0  0  0  0  0  0  0  0  0  0  0  0
    0.7145   -0.4125    0.0000 C   0  0  0  0  0  0  0  0  0  0  0  0
    0.0000    0.0000    0.0000 C   0  0  0  0  0  0  0  0  0  0  0  0
    0.0000    0.8250    0.0000 C   0  0  0  0  0  0  0  0  0  0  0  0
   -0.7846    1.0799    0.0000 N   0  0  0  0  0  0  0  0  0  0  0  0
   -1.2695    0.4125    0.0000 C   0  0  0  0  0  0  0  0  0  0  0  0
   -2.0945    0.4125    0.0000 O   0  0  0  0  0  0  0  0  0  0  0  0
   -0.7846   -0.2549    0.0000 N   0  0  0  0  0  0  0  0  0  0  0  0
    0.7145    1.2375    0.0000 N   0  0  0  0  0  0  0  0  0  0  0  0
    1.4289    0.8250    0.0000 C   0  0  0  0  0  0  0  0  0  0  0  0
    2.1434    1.2375    0.0000 O   0  0  0  0  0  0  0  0  0  0  0  0
    1.4289   -0.0000    0.0000 N   0  0  0  0  0  0  0  0  0  0  0  0
  1  2  2  0  0  0  0
  2  3  1  0  0  0  0
  3  4  2  0  0  0  0
  4  5  1  0  0  0  0
  5  6  1  0  0  0  0
  6  7  2  0  0  0  0
  6  8  1  0  0  0  0
  3  8  1  0  0  0  0
  4  9  1  0  0  0  0
  9 10  1  0  0  0  0
 10 11  2  0  0  0  0
 10 12  1  0  0  0  0
  2 12  1  0  0  0  0
M  END
>  <Name>
Uric Acid

>  <CAS>
69-93-2

>  <Formula>
C5H4N4O3

>  <MolWt>
168.11 

>  <Bioactivity>
An oxidation product, via XANTHINE OXIDASE, of oxypurines such as XANTHINE and HYPOXANTHINE. It is the final oxidation product of purine catabolism in humans and primates, whereas in most other mammals URATE OXIDASE further oxidizes it to ALLANTOIN.


>  <Pathways>
Enzyme

>  <Target>
Phosphorylase

>  <Receptor>
Glycogen phosphorylase

>  <Reference>
1. Livingston JR, et al. J Obstet Gynaecol Can. 2014 Oct;36(10):870-7.

$$$$
83-67-0
  Mrv1561503291623562D          

 13 14  0  0  0  0            999 V2000
   -0.6284   -0.6979    0.0000 C   0  0  0  0  0  0  0  0  0  0  0  0
   -0.1435   -1.3654    0.0000 N   0  0  0  0  0  0  0  0  0  0  0  0
    0.6411   -1.1104    0.0000 C   0  0  0  0  0  0  0  0  0  0  0  0
    0.6411   -0.2854    0.0000 C   0  0  0  0  0  0  0  0  0  0  0  0
    1.3556    0.1271    0.0000 C   0  0  0  0  0  0  0  0  0  0  0  0
    2.0701   -0.2854    0.0000 N   0  0  0  0  0  0  0  0  0  0  0  0
    2.0701   -1.1104    0.0000 C   0  0  0  0  0  0  0  0  0  0  0  0
    1.3556   -1.5229    0.0000 N   0  0  0  0  0  0  0  0  0  0  0  0
    1.3556   -2.3479    0.0000 C   0  0  0  0  0  0  0  0  0  0  0  0
    2.7845   -1.5229    0.0000 O   0  0  0  0  0  0  0  0  0  0  0  0
    1.3556    0.9521    0.0000 O   0  0  0  0  0  0  0  0  0  0  0  0
   -0.1435   -0.0305    0.0000 N   0  0  0  0  0  0  0  0  0  0  0  0
   -0.3984    0.7541    0.0000 C   0  0  0  0  0  0  0  0  0  0  0  0
  1  2  2  0  0  0  0
  2  3  1  0  0  0  0
  3  4  2  0  0  0  0
  4  5  1  0  0  0  0
  5  6  1  0  0  0  0
  6  7  1  0  0  0  0
  7  8  1  0  0  0  0
  3  8  1  0  0  0  0
  8  9  1  0  0  0  0
  7 10  2  0  0  0  0
  5 11  2  0  0  0  0
  4 12  1  0  0  0  0
  1 12  1  0  0  0  0
 12 13  1  0  0  0  0
M  END
>  <Name>
Theobromine

>  <CAS>
83-67-0

>  <Formula>
C7H8N4O2

>  <MolWt>
180.16 

>  <Bioactivity>
3,7-Dimethylxanthine. The principle alkaloid in Theobroma cacao (the cacao bean) and other plants. A xanthine alkaloid that is used as a bronchodilator and as a vasodilator. It has a weaker diuretic activity than THEOPHYLLINE and is also a less powerful stimulant of smooth muscle. It has practically no stimulant effect on the central nervous system. It was formerly used as a diuretic and in the treatment of angina pectoris and hypertension. 

>  <Pathways>
Metabolism; GPCR/G Protein

>  <Target>
Adenosine receptor antagonist;PDE inhibitor

>  <Receptor>
Adenosine receptor ;PDE

>  <Reference>
1. Chou CC, Vickroy TW. Am J Vet Res. 2003 Feb;64(2):216-24. 

$$$$
118-60-5
  Mrv1561503291623562D          

 18 18  0  0  0  0            999 V2000
    0.7145   -0.4125    0.0000 C   0  0  0  0  0  0  0  0  0  0  0  0
   -0.0000   -0.0000    0.0000 C   0  0  0  0  0  0  0  0  0  0  0  0
   -0.0000    0.8250    0.0000 C   0  0  0  0  0  0  0  0  0  0  0  0
    0.7145    1.2375    0.0000 C   0  0  0  0  0  0  0  0  0  0  0  0
    1.4289    0.8250    0.0000 C   0  0  0  0  0  0  0  0  0  0  0  0
    1.4289   -0.0000    0.0000 C   0  0  0  0  0  0  0  0  0  0  0  0
    2.1434   -0.4125    0.0000 C   0  0  0  0  0  0  0  0  0  0  0  0
    2.8579   -0.0000    0.0000 O   0  0  0  0  0  0  0  0  0  0  0  0
    3.5724   -0.4125    0.0000 C   0  0  0  0  0  0  0  0  0  0  0  0
    4.2868   -0.0000    0.0000 C   0  0  0  0  0  0  0  0  0  0  0  0
    5.0013   -0.4125    0.0000 C   0  0  0  0  0  0  0  0  0  0  0  0
    5.7158   -0.0000    0.0000 C   0  0  0  0  0  0  0  0  0  0  0  0
    6.4302   -0.4125    0.0000 C   0  0  0  0  0  0  0  0  0  0  0  0
    7.1447   -0.0000    0.0000 C   0  0  0  0  0  0  0  0  0  0  0  0
    4.2868    0.8250    0.0000 C   0  0  0  0  0  0  0  0  0  0  0  0
    5.0013    1.2375    0.0000 C   0  0  0  0  0  0  0  0  0  0  0  0
    2.1434   -1.2375    0.0000 O   0  0  0  0  0  0  0  0  0  0  0  0
    2.1434    1.2375    0.0000 O   0  0  0  0  0  0  0  0  0  0  0  0
  1  2  2  0  0  0  0
  2  3  1  0  0  0  0
  3  4  2  0  0  0  0
  4  5  1  0  0  0  0
  5  6  2  0  0  0  0
  1  6  1  0  0  0  0
  6  7  1  0  0  0  0
  7  8  1  0  0  0  0
  8  9  1  0  0  0  0
  9 10  1  0  0  0  0
 10 11  1  0  0  0  0
 11 12  1  0  0  0  0
 12 13  1  0  0  0  0
 13 14  1  0  0  0  0
 10 15  1  0  0  0  0
 15 16  1  0  0  0  0
  7 17  2  0  0  0  0
  5 18  1  0  0  0  0
M  END
>  <Name>
Octisalate

>  <CAS>
118-60-5

>  <Formula>
C15H22O3

>  <MolWt>
250.34 

>  <Bioactivity>
Octyl salicylate, or 2-ethylhexyl salicylate, is an organic compound used as an ingredient in sunscreens and cosmetics to absorb UVB (ultraviolet) rays from the sun.[1] It is an ester formed by the condensation of a salicylic acid with 2-ethylhexanol. It is a colorless oily liquid with a slight floral odor.
The salicylate portion of the molecule absorbs ultraviolet light, protecting skin from the harmful effects of exposure to sunlight. The ethylhexanol portion is a fatty alcohol, adding emollient and oil-like (water resistant) properties.

>  <Pathways>
Others

>  <Target>
Others

>  <Receptor>
Others

>  <Reference>
1. Singh M, Beck MH. Contact Dermatitis. 2007 Jan;56(1):48. 

$$$$
5466-77-3
  Mrv1561503291623562D          

 21 21  0  0  0  0            999 V2000
    0.7145   -2.8875    0.0000 C   0  0  0  0  0  0  0  0  0  0  0  0
   -0.0000   -3.3000    0.0000 C   0  0  0  0  0  0  0  0  0  0  0  0
   -0.7145   -2.8875    0.0000 C   0  0  0  0  0  0  0  0  0  0  0  0
   -0.7145   -2.0625    0.0000 C   0  0  0  0  0  0  0  0  0  0  0  0
   -0.0000   -1.6500    0.0000 C   0  0  0  0  0  0  0  0  0  0  0  0
    0.7145   -2.0625    0.0000 C   0  0  0  0  0  0  0  0  0  0  0  0
    1.4289   -1.6500    0.0000 C   0  0  0  0  0  0  0  0  0  0  0  0
    2.1434   -2.0625    0.0000 C   0  0  0  0  0  0  0  0  0  0  0  0
    2.8579   -1.6500    0.0000 C   0  0  0  0  0  0  0  0  0  0  0  0
    3.5724   -2.0625    0.0000 O   0  0  0  0  0  0  0  0  0  0  0  0
    4.2868   -1.6500    0.0000 C   0  0  0  0  0  0  0  0  0  0  0  0
    5.0013   -2.0625    0.0000 C   0  0  0  0  0  0  0  0  0  0  0  0
    5.7158   -1.6500    0.0000 C   0  0  0  0  0  0  0  0  0  0  0  0
    6.4302   -2.0625    0.0000 C   0  0  0  0  0  0  0  0  0  0  0  0
    7.1447   -1.6500    0.0000 C   0  0  0  0  0  0  0  0  0  0  0  0
    7.8592   -2.0625    0.0000 C   0  0  0  0  0  0  0  0  0  0  0  0
    5.0013   -2.8875    0.0000 C   0  0  0  0  0  0  0  0  0  0  0  0
    5.7158   -3.3000    0.0000 C   0  0  0  0  0  0  0  0  0  0  0  0
    2.8579   -0.8250    0.0000 O   0  0  0  0  0  0  0  0  0  0  0  0
   -1.4289   -3.3000    0.0000 O   0  0  0  0  0  0  0  0  0  0  0  0
   -1.4289   -4.1250    0.0000 C   0  0  0  0  0  0  0  0  0  0  0  0
  1  2  2  0  0  0  0
  2  3  1  0  0  0  0
  3  4  2  0  0  0  0
  4  5  1  0  0  0  0
  5  6  2  0  0  0  0
  1  6  1  0  0  0  0
  6  7  1  0  0  0  0
  7  8  2  0  0  0  0
  8  9  1  0  0  0  0
  9 10  1  0  0  0  0
 10 11  1  0  0  0  0
 11 12  1  0  0  0  0
 12 13  1  0  0  0  0
 13 14  1  0  0  0  0
 14 15  1  0  0  0  0
 15 16  1  0  0  0  0
 12 17  1  0  0  0  0
 17 18  1  0  0  0  0
  9 19  2  0  0  0  0
  3 20  1  0  0  0  0
 20 21  1  0  0  0  0
M  END
>  <Name>
Octyl 4-methoxycinnamate

>  <CAS>
5466-77-3

>  <Formula>
C18H26O3

>  <MolWt>
290.40 

>  <Bioactivity>
Its primary use is in sunscreens and other cosmetics to absorb UV-B rays from the sun, protecting the skin from damage. It is also used to reduce the appearance of scars.

>  <Pathways>
Others

>  <Target>
Others

>  <Receptor>
Others

>  <Reference>
1. Hayden CG, et al. Skin Pharmacol Physiol. 2005 Jul-Aug;18(4):170-4. 

$$$$
520-27-4
  Mrv1561503291623562D          

 43 47  0  0  1  0            999 V2000
   -2.1434   -1.2375    0.0000 C   0  0  2  0  0  0  0  0  0  0  0  0
   -1.4289   -1.6500    0.0000 O   0  0  0  0  0  0  0  0  0  0  0  0
   -0.7145   -1.2375    0.0000 C   0  0  0  0  0  0  0  0  0  0  0  0
   -0.0000   -1.6500    0.0000 C   0  0  0  0  0  0  0  0  0  0  0  0
    0.7145   -1.2375    0.0000 C   0  0  0  0  0  0  0  0  0  0  0  0
    0.7145   -0.4125    0.0000 C   0  0  0  0  0  0  0  0  0  0  0  0
    1.4289    0.0000    0.0000 C   0  0  0  0  0  0  0  0  0  0  0  0
    2.1434   -0.4125    0.0000 C   0  0  0  0  0  0  0  0  0  0  0  0
    2.1434   -1.2375    0.0000 C   0  0  0  0  0  0  0  0  0  0  0  0
    1.4289   -1.6500    0.0000 O   0  0  0  0  0  0  0  0  0  0  0  0
    2.8579   -1.6500    0.0000 C   0  0  0  0  0  0  0  0  0  0  0  0
    3.5724   -1.2375    0.0000 C   0  0  0  0  0  0  0  0  0  0  0  0
    4.2868   -1.6500    0.0000 C   0  0  0  0  0  0  0  0  0  0  0  0
    4.2868   -2.4750    0.0000 C   0  0  0  0  0  0  0  0  0  0  0  0
    3.5724   -2.8875    0.0000 C   0  0  0  0  0  0  0  0  0  0  0  0
    2.8579   -2.4750    0.0000 C   0  0  0  0  0  0  0  0  0  0  0  0
    3.5724   -3.7125    0.0000 O   0  0  0  0  0  0  0  0  0  0  0  0
    5.0013   -2.8875    0.0000 O   0  0  0  0  0  0  0  0  0  0  0  0
    5.0013   -3.7125    0.0000 C   0  0  0  0  0  0  0  0  0  0  0  0
    1.4289    0.8250    0.0000 O   0  0  0  0  0  0  0  0  0  0  0  0
   -0.0000    0.0000    0.0000 C   0  0  0  0  0  0  0  0  0  0  0  0
   -0.7145   -0.4125    0.0000 C   0  0  0  0  0  0  0  0  0  0  0  0
   -0.0000    0.8250    0.0000 O   0  0  0  0  0  0  0  0  0  0  0  0
   -2.8579   -1.6500    0.0000 O   0  0  0  0  0  0  0  0  0  0  0  0
   -3.5724   -1.2375    0.0000 C   0  0  1  0  0  0  0  0  0  0  0  0
   -3.5724   -0.4125    0.0000 C   0  0  1  0  0  0  0  0  0  0  0  0
   -4.2868    0.0000    0.0000 O   0  0  0  0  0  0  0  0  0  0  0  0
   -2.8579    0.0000    0.0000 C   0  0  1  0  0  0  0  0  0  0  0  0
   -2.1434   -0.4125    0.0000 C   0  0  1  0  0  0  0  0  0  0  0  0
   -1.4289   -0.0000    0.0000 O   0  0  0  0  0  0  0  0  0  0  0  0
   -2.8579    0.8250    0.0000 O   0  0  0  0  0  0  0  0  0  0  0  0
   -4.2868   -1.6500    0.0000 C   0  0  0  0  0  0  0  0  0  0  0  0
   -4.2868   -2.4750    0.0000 O   0  0  0  0  0  0  0  0  0  0  0  0
   -5.0013   -2.8875    0.0000 C   0  0  1  0  0  0  0  0  0  0  0  0
   -5.0013   -3.7125    0.0000 C   0  0  1  0  0  0  0  0  0  0  0  0
   -5.7158   -4.1250    0.0000 C   0  0  1  0  0  0  0  0  0  0  0  0
   -6.4302   -3.7125    0.0000 C   0  0  1  0  0  0  0  0  0  0  0  0
   -7.1447   -4.1250    0.0000 O   0  0  0  0  0  0  0  0  0  0  0  0
   -6.4302   -2.8875    0.0000 C   0  0  1  0  0  0  0  0  0  0  0  0
   -5.7158   -2.4750    0.0000 O   0  0  0  0  0  0  0  0  0  0  0  0
   -7.1447   -2.4750    0.0000 C   0  0  0  0  0  0  0  0  0  0  0  0
   -5.7158   -4.9500    0.0000 O   0  0  0  0  0  0  0  0  0  0  0  0
   -4.2868   -4.1250    0.0000 O   0  0  0  0  0  0  0  0  0  0  0  0
  1  2  1  6  0  0  0
  2  3  1  0  0  0  0
  3  4  2  0  0  0  0
  4  5  1  0  0  0  0
  5  6  2  0  0  0  0
  6  7  1  0  0  0  0
  7  8  1  0  0  0  0
  8  9  2  0  0  0  0
  9 10  1  0  0  0  0
  5 10  1  0  0  0  0
  9 11  1  0  0  0  0
 11 12  2  0  0  0  0
 12 13  1  0  0  0  0
 13 14  2  0  0  0  0
 14 15  1  0  0  0  0
 15 16  2  0  0  0  0
 11 16  1  0  0  0  0
 15 17  1  0  0  0  0
 14 18  1  0  0  0  0
 18 19  1  0  0  0  0
  7 20  2  0  0  0  0
  6 21  1  0  0  0  0
 21 22  2  0  0  0  0
  3 22  1  0  0  0  0
 21 23  1  0  0  0  0
  1 24  1  0  0  0  0
 24 25  1  0  0  0  0
 25 26  1  0  0  0  0
 26 27  1  1  0  0  0
 26 28  1  0  0  0  0
 28 29  1  0  0  0  0
  1 29  1  0  0  0  0
 29 30  1  1  0  0  0
 28 31  1  6  0  0  0
 25 32  1  6  0  0  0
 32 33  1  0  0  0  0
 34 33  1  1  0  0  0
 34 35  1  0  0  0  0
 35 36  1  0  0  0  0
 36 37  1  0  0  0  0
 37 38  1  1  0  0  0
 37 39  1  0  0  0  0
 39 40  1  0  0  0  0
 34 40  1  0  0  0  0
 39 41  1  6  0  0  0
 36 42  1  6  0  0  0
 35 43  1  6  0  0  0
M  END
>  <Name>
Diosmin

>  <CAS>
520-27-4

>  <Formula>
C28H32O15

>  <MolWt>
608.54 

>  <Bioactivity>
Diosmin is a semisynthetic phlebotropic agent and a member of the flavonoid family. Extracted from hesperidin;Store the product in sealed, cool and dry condition

>  <Pathways>
Endocrinology/ Hormones

>  <Target>
Norepinephrine

>  <Receptor>
norepinephrine

>  <Reference>
1. Veverková L, et al. Rozhl Chir. 2005 Aug;84(8):410-2, 414-6.

$$$$
T0425
  Mrv1561503291623562D          

 24 26  0  0  0  0            999 V2000
   -0.0000    0.0000    0.0000 C   0  0  0  0  0  0  0  0  0  0  0  0
   -0.7145   -0.4125    0.0000 C   0  0  0  0  0  0  0  0  0  0  0  0
   -1.4289    0.0000    0.0000 N   0  0  0  0  0  0  0  0  0  0  0  0
   -2.1434   -0.4125    0.0000 C   0  0  0  0  0  0  0  0  0  0  0  0
   -2.8579   -0.0000    0.0000 C   0  0  0  0  0  0  0  0  0  0  0  0
   -2.8579    0.8250    0.0000 N   0  0  0  0  0  0  0  0  0  0  0  0
   -3.5724    1.2375    0.0000 C   0  0  0  0  0  0  0  0  0  0  0  0
   -2.1434    1.2375    0.0000 C   0  0  0  0  0  0  0  0  0  0  0  0
   -1.4289    0.8250    0.0000 C   0  0  0  0  0  0  0  0  0  0  0  0
   -0.7145   -1.2375    0.0000 C   0  0  0  0  0  0  0  0  0  0  0  0
   -0.0000   -1.6500    0.0000 C   0  0  0  0  0  0  0  0  0  0  0  0
    0.7145   -1.2375    0.0000 C   0  0  0  0  0  0  0  0  0  0  0  0
    0.7145   -0.4125    0.0000 C   0  0  0  0  0  0  0  0  0  0  0  0
    1.4289    0.0000    0.0000 N   0  0  0  0  0  0  0  0  0  0  0  0
    2.1434   -0.4125    0.0000 C   0  0  0  0  0  0  0  0  0  0  0  0
    2.1434   -1.2375    0.0000 C   0  0  0  0  0  0  0  0  0  0  0  0
    1.4289   -1.6500    0.0000 C   0  0  0  0  0  0  0  0  0  0  0  0
    1.4289   -2.4750    0.0000 O   0  0  0  0  0  0  0  0  0  0  0  0
    2.8579   -1.6500    0.0000 C   0  0  0  0  0  0  0  0  0  0  0  0
    3.5724   -1.2375    0.0000 O   0  0  0  0  0  0  0  0  0  0  0  0
    2.8579   -2.4750    0.0000 O   0  0  0  0  0  0  0  0  0  0  0  0
    1.4289    0.8250    0.0000 C   0  0  0  0  0  0  0  0  0  0  0  0
    2.1434    1.2375    0.0000 C   0  0  0  0  0  0  0  0  0  0  0  0
   -1.4289   -1.6500    0.0000 F   0  0  0  0  0  0  0  0  0  0  0  0
  1  2  2  0  0  0  0
  2  3  1  0  0  0  0
  3  4  1  0  0  0  0
  4  5  1  0  0  0  0
  5  6  1  0  0  0  0
  6  7  1  0  0  0  0
  6  8  1  0  0  0  0
  8  9  1  0  0  0  0
  3  9  1  0  0  0  0
  2 10  1  0  0  0  0
 10 11  2  0  0  0  0
 11 12  1  0  0  0  0
 12 13  2  0  0  0  0
  1 13  1  0  0  0  0
 13 14  1  0  0  0  0
 14 15  1  0  0  0  0
 15 16  2  0  0  0  0
 16 17  1  0  0  0  0
 12 17  1  0  0  0  0
 17 18  2  0  0  0  0
 16 19  1  0  0  0  0
 19 20  1  0  0  0  0
 19 21  2  0  0  0  0
 14 22  1  0  0  0  0
 22 23  1  0  0  0  0
 10 24  1  0  0  0  0
M  END
>  <Name>
Pefloxacin

>  <CAS>
70458-92-3

>  <Formula>
C17H20FN3O3

>  <MolWt>
333.36 

>  <Bioactivity>
A synthetic broad-spectrum fluoroquinolone antibacterial agent active against most gram-negative and gram-positive bacteria. 

>  <Pathways>
DNA Damage/DNA Repair

>  <Target>
Topoisomerase inhibitor

>  <Receptor>
DNA topoisomerase IV

>  <Reference>
1. Vila J, et al. Int J Antimicrob Agents. 2006 Jul;28(1):19-24.

$$$$
78213-16-8
  Mrv1561503291623562D          

 24 24  0  0  0  0            999 V2000
    0.3384   -0.9336    0.0000 C   0  0  0  0  0  0  0  0  0  0  0  0
    0.3384   -0.1086    0.0000 C   0  0  0  0  0  0  0  0  0  0  0  0
   -0.3760    0.3039    0.0000 N   0  0  0  0  0  0  0  0  0  0  0  0
   -1.0905   -0.1086    0.0000 C   0  0  0  0  0  0  0  0  0  0  0  0
   -1.0905   -0.9336    0.0000 C   0  0  0  0  0  0  0  0  0  0  0  0
   -0.3760   -1.3461    0.0000 Cl  0  0  0  0  0  0  0  0  0  0  0  0
   -1.8050   -1.3461    0.0000 C   0  0  0  0  0  0  0  0  0  0  0  0
   -2.5195   -0.9336    0.0000 C   0  0  0  0  0  0  0  0  0  0  0  0
   -2.5195   -0.1086    0.0000 C   0  0  0  0  0  0  0  0  0  0  0  0
   -1.8050    0.3039    0.0000 C   0  0  0  0  0  0  0  0  0  0  0  0
   -1.8050    1.1289    0.0000 Cl  0  0  0  0  0  0  0  0  0  0  0  0
    1.0529    0.3039    0.0000 C   0  0  0  0  0  0  0  0  0  0  0  0
    1.7674   -0.1086    0.0000 C   0  0  0  0  0  0  0  0  0  0  0  0
    1.7674   -0.9336    0.0000 C   0  0  0  0  0  0  0  0  0  0  0  0
    1.0529   -1.3461    0.0000 C   0  0  0  0  0  0  0  0  0  0  0  0
    1.0529    1.1289    0.0000 C   0  0  0  0  0  0  0  0  0  0  0  0
    1.7674    1.5414    0.0000 C   0  0  0  0  0  0  0  0  0  0  0  0
    1.7674    2.3664    0.0000 O   0  0  0  0  0  0  0  0  0  0  0  0
    2.4818    1.1289    0.0000 O   0  0  0  0  0  0  0  0  0  0  0  0
    5.6640    0.5716    0.0000 C   0  0  0  0  0  0  0  0  0  0  0  0
    6.0765   -0.1429    0.0000 N   0  0  0  0  0  0  0  0  0  0  0  0
    6.9015   -0.1429    0.0000 C   0  0  0  0  0  0  0  0  0  0  0  0
    7.3140   -0.8574    0.0000 C   0  0  0  0  0  0  0  0  0  0  0  0
    4.8390    0.5716    0.0000 C   0  0  0  0  0  0  0  0  0  0  0  0
  1  2  2  0  0  0  0
  2  3  1  0  0  0  0
  3  4  1  0  0  0  0
  4  5  2  0  0  0  0
  5  6  1  0  0  0  0
  5  7  1  0  0  0  0
  7  8  2  0  0  0  0
  8  9  1  0  0  0  0
  9 10  2  0  0  0  0
  4 10  1  0  0  0  0
 10 11  1  0  0  0  0
  2 12  1  0  0  0  0
 12 13  2  0  0  0  0
 13 14  1  0  0  0  0
 14 15  2  0  0  0  0
  1 15  1  0  0  0  0
 12 16  1  0  0  0  0
 16 17  1  0  0  0  0
 17 18  2  0  0  0  0
 17 19  1  0  0  0  0
 20 21  1  0  0  0  0
 21 22  1  0  0  0  0
 22 23  1  0  0  0  0
 20 24  1  0  0  0  0
M  END
>  <Name>
Diclofenac diethylamine

>  <CAS>
78213-16-8

>  <Formula>
C18H22Cl2N2O2

>  <MolWt>
369.29 

>  <Bioactivity>
Diclofenac diethylamine is a nonsteroidal anti-inflammatory drug taken to reduce inflammation and as an analgesic reducing pain in certain conditions.

>  <Pathways>
Others

>  <Target>
Others

>  <Receptor>
Others

>  <Reference>
1. Dastidar SG, et al. Int J Antimicrob Agents, 2000, 14(3), 249-251.

$$$$
89-78-1
  Mrv1561503291623562D          

 11 11  0  0  1  0            999 V2000
    0.7145    1.2375    0.0000 C   0  0  1  0  0  0  0  0  0  0  0  0
    1.4289    0.8250    0.0000 C   0  0  1  0  0  0  0  0  0  0  0  0
    1.4289    0.0000    0.0000 C   0  0  0  0  0  0  0  0  0  0  0  0
    0.7145   -0.4125    0.0000 C   0  0  2  0  0  0  0  0  0  0  0  0
    0.7145   -1.2375    0.0000 C   0  0  0  0  0  0  0  0  0  0  0  0
    0.0000   -0.0000    0.0000 C   0  0  0  0  0  0  0  0  0  0  0  0
    0.0000    0.8250    0.0000 C   0  0  0  0  0  0  0  0  0  0  0  0
    2.1434    1.2375    0.0000 O   0  0  0  0  0  0  0  0  0  0  0  0
    0.7145    2.0625    0.0000 C   0  0  0  0  0  0  0  0  0  0  0  0
   -0.0000    2.4750    0.0000 C   0  0  0  0  0  0  0  0  0  0  0  0
    1.4289    2.4750    0.0000 C   0  0  0  0  0  0  0  0  0  0  0  0
  1  2  1  0  0  0  0
  2  3  1  0  0  0  0
  3  4  1  0  0  0  0
  4  5  1  6  0  0  0
  4  6  1  0  0  0  0
  6  7  1  0  0  0  0
  1  7  1  0  0  0  0
  2  8  1  6  0  0  0
  1  9  1  1  0  0  0
  9 10  1  0  0  0  0
  9 11  1  0  0  0  0
M  END
>  <Name>
Menthol

>  <CAS>
89-78-1

>  <Formula>
C10H20O

>  <MolWt>
156.15 

>  <Bioactivity>
Extracted from Herba Menthae Haplocalycis;Suitability:Alcohol,ether,acetic acid,liquid paraffin and petroleum ether;Store the product in sealed,cool and dry condition

>  <Pathways>
Others

>  <Target>
Others

>  <Receptor>
Others

>  <Reference>
1. Wang DL, et al. J Agric Food Chem. 2002 Jan 16;50(2):262-5.

$$$$
140-10-3
  Mrv1561503291623562D          

 11 11  0  0  0  0            999 V2000
    0.0000    0.8250    0.0000 C   0  0  0  0  0  0  0  0  0  0  0  0
    0.7145    1.2375    0.0000 C   0  0  0  0  0  0  0  0  0  0  0  0
    0.7145    2.0625    0.0000 C   0  0  0  0  0  0  0  0  0  0  0  0
    1.4289    2.4750    0.0000 C   0  0  0  0  0  0  0  0  0  0  0  0
    1.4289    3.3000    0.0000 C   0  0  0  0  0  0  0  0  0  0  0  0
    2.1434    3.7125    0.0000 O   0  0  0  0  0  0  0  0  0  0  0  0
    0.7145    3.7125    0.0000 O   0  0  0  0  0  0  0  0  0  0  0  0
    1.4289    0.8250    0.0000 C   0  0  0  0  0  0  0  0  0  0  0  0
    1.4289   -0.0000    0.0000 C   0  0  0  0  0  0  0  0  0  0  0  0
    0.7145   -0.4125    0.0000 C   0  0  0  0  0  0  0  0  0  0  0  0
   -0.0000    0.0000    0.0000 C   0  0  0  0  0  0  0  0  0  0  0  0
  1  2  2  0  0  0  0
  2  3  1  0  0  0  0
  3  4  2  0  0  0  0
  4  5  1  0  0  0  0
  5  6  1  0  0  0  0
  5  7  2  0  0  0  0
  2  8  1  0  0  0  0
  8  9  2  0  0  0  0
  9 10  1  0  0  0  0
 10 11  2  0  0  0  0
  1 11  1  0  0  0  0
M  END
>  <Name>
Cinnamic acid

>  <CAS>
140-10-3

>  <Formula>
C9H8O2

>  <MolWt>
148.16 

>  <Bioactivity>
Cinnamic acid exerts anti-diabetic activity by improving glucose tolerance in vivo and by stimulating insulin secretion in vitro.

>  <Pathways>
Others

>  <Target>
Others

>  <Receptor>
Others

>  <Reference>
1. Hafizur RM, et al. Phytomedicine. 2015 Feb 15;22(2):297-300.

$$$$
T0506
  Mrv1561503291623562D          

 25 28  0  0  0  0            999 V2000
   -1.7605   -1.2375    0.0000 C   0  0  0  0  0  0  0  0  0  0  0  0
   -1.3480   -0.5230    0.0000 C   0  0  0  0  0  0  0  0  0  0  0  0
   -0.5230   -0.5230    0.0000 C   0  0  0  0  0  0  0  0  0  0  0  0
   -0.1105   -1.2375    0.0000 C   0  0  0  0  0  0  0  0  0  0  0  0
   -0.5230   -1.9520    0.0000 C   0  0  0  0  0  0  0  0  0  0  0  0
   -1.3480   -1.9520    0.0000 C   0  0  0  0  0  0  0  0  0  0  0  0
    0.7145   -1.2375    0.0000 C   0  0  0  0  0  0  0  0  0  0  0  0
    1.5395   -1.2375    0.0000 C   0  0  0  0  0  0  0  0  0  0  0  0
    1.9520   -0.5230    0.0000 C   0  0  0  0  0  0  0  0  0  0  0  0
    2.7770   -0.5230    0.0000 C   0  0  0  0  0  0  0  0  0  0  0  0
    3.1895   -1.2375    0.0000 C   0  0  0  0  0  0  0  0  0  0  0  0
    2.7770   -1.9520    0.0000 C   0  0  0  0  0  0  0  0  0  0  0  0
    1.9520   -1.9520    0.0000 C   0  0  0  0  0  0  0  0  0  0  0  0
    1.7804    0.2839    0.0000 Cl  0  0  0  0  0  0  0  0  0  0  0  0
    0.7145   -2.0625    0.0000 N   0  0  0  0  0  0  0  0  0  0  0  0
    1.3819   -2.5474    0.0000 C   0  0  0  0  0  0  0  0  0  0  0  0
    1.1270   -3.3320    0.0000 N   0  0  0  0  0  0  0  0  0  0  0  0
    0.3020   -3.3320    0.0000 C   0  0  0  0  0  0  0  0  0  0  0  0
    0.0470   -2.5474    0.0000 C   0  0  0  0  0  0  0  0  0  0  0  0
    0.7145   -0.4125    0.0000 C   0  0  0  0  0  0  0  0  0  0  0  0
   -0.0000   -0.0000    0.0000 C   0  0  0  0  0  0  0  0  0  0  0  0
   -0.0000    0.8250    0.0000 C   0  0  0  0  0  0  0  0  0  0  0  0
    0.7145    1.2375    0.0000 C   0  0  0  0  0  0  0  0  0  0  0  0
    1.4289    0.8250    0.0000 C   0  0  0  0  0  0  0  0  0  0  0  0
    1.4289    0.0000    0.0000 C   0  0  0  0  0  0  0  0  0  0  0  0
  1  2  2  0  0  0  0
  2  3  1  0  0  0  0
  3  4  2  0  0  0  0
  4  5  1  0  0  0  0
  5  6  2  0  0  0  0
  1  6  1  0  0  0  0
  4  7  1  0  0  0  0
  7  8  1  0  0  0  0
  8  9  2  0  0  0  0
  9 10  1  0  0  0  0
 10 11  2  0  0  0  0
 11 12  1  0  0  0  0
 12 13  2  0  0  0  0
  8 13  1  0  0  0  0
  9 14  1  0  0  0  0
  7 15  1  0  0  0  0
 15 16  1  0  0  0  0
 16 17  2  0  0  0  0
 17 18  1  0  0  0  0
 18 19  2  0  0  0  0
 15 19  1  0  0  0  0
  7 20  1  0  0  0  0
 20 21  2  0  0  0  0
 21 22  1  0  0  0  0
 22 23  2  0  0  0  0
 23 24  1  0  0  0  0
 24 25  2  0  0  0  0
 20 25  1  0  0  0  0
M  END
>  <Name>
Clotrimazole

>  <CAS>
23593-75-1

>  <Formula>
C22H17ClN2

>  <MolWt>
344.84 

>  <Bioactivity>
An imidazole derivative with a broad spectrum of antimycotic activity. It inhibits biosynthesis of the sterol ergostol, an important component of fungal CELL MEMBRANES. Its action leads to increased membrane permeability and apparent disruption of enzyme systems bound to the membrane. 

>  <Pathways>
Microbiology & Virology

>  <Target>
Antibiotic

>  <Receptor>
14-? Demethylase

>  <Reference>
1. Warrilow AG, et al. Antimicrob Agents Chemother. 2010 Oct;54(10):4235-45.

$$$$
T1126
  Mrv1561503291623562D          

 25 26  0  0  1  0            999 V2000
    0.1255   -2.0639    0.0000 C   0  0  0  0  0  0  0  0  0  0  0  0
   -0.5664   -2.5132    0.0000 S   0  0  0  0  0  0  0  0  0  0  0  0
   -1.2076   -1.9940    0.0000 C   0  0  0  0  0  0  0  0  0  0  0  0
   -0.9119   -1.2238    0.0000 C   0  0  0  0  0  0  0  0  0  0  0  0
   -0.0880   -1.2670    0.0000 N   0  0  0  0  0  0  0  0  0  0  0  0
    0.7089   -1.0535    0.0000 C   0  0  0  0  0  0  0  0  0  0  0  0
    1.1214   -0.3390    0.0000 O   0  0  0  0  0  0  0  0  0  0  0  0
    0.9224   -1.8504    0.0000 C   0  0  0  0  0  0  0  0  0  0  0  0
    1.6369   -2.2629    0.0000 N   0  0  0  0  0  0  0  0  0  0  0  0
    2.3513   -1.8504    0.0000 C   0  0  0  0  0  0  0  0  0  0  0  0
    2.3513   -1.0254    0.0000 O   0  0  0  0  0  0  0  0  0  0  0  0
    3.0658   -2.2629    0.0000 C   0  0  0  0  0  0  0  0  0  0  0  0
    3.7803   -1.8504    0.0000 O   0  0  0  0  0  0  0  0  0  0  0  0
    4.4947   -2.2629    0.0000 C   0  0  0  0  0  0  0  0  0  0  0  0
    5.2092   -1.8504    0.0000 C   0  0  0  0  0  0  0  0  0  0  0  0
    5.9237   -2.2629    0.0000 C   0  0  0  0  0  0  0  0  0  0  0  0
    5.9237   -3.0879    0.0000 C   0  0  0  0  0  0  0  0  0  0  0  0
    5.2092   -3.5004    0.0000 C   0  0  0  0  0  0  0  0  0  0  0  0
    4.4947   -3.0879    0.0000 C   0  0  0  0  0  0  0  0  0  0  0  0
   -1.3612   -0.5319    0.0000 C   0  0  0  0  0  0  0  0  0  0  0  0
   -2.1851   -0.5751    0.0000 O   0  5  0  0  0  0  0  0  0  0  0  0
   -0.9867    0.2032    0.0000 O   0  0  0  0  0  0  0  0  0  0  0  0
   -1.7970   -2.5712    0.0000 C   0  0  0  0  0  0  0  0  0  0  0  0
   -2.0066   -1.7889    0.0000 C   0  0  0  0  0  0  0  0  0  0  0  0
   -3.0090   -0.6183    0.0000 K   0  3  0  0  0  0  0  0  0  0  0  0
  1  2  1  0  0  0  0
  2  3  1  0  0  0  0
  3  4  1  0  0  0  0
  4  5  1  0  0  0  0
  1  5  1  0  0  0  0
  5  6  1  0  0  0  0
  6  7  2  0  0  0  0
  6  8  1  0  0  0  0
  1  8  1  0  0  0  0
  8  9  1  0  0  0  0
  9 10  1  0  0  0  0
 10 11  2  0  0  0  0
 10 12  1  0  0  0  0
 12 13  1  0  0  0  0
 13 14  1  0  0  0  0
 14 15  2  0  0  0  0
 15 16  1  0  0  0  0
 16 17  2  0  0  0  0
 17 18  1  0  0  0  0
 18 19  2  0  0  0  0
 14 19  1  0  0  0  0
  4 20  1  0  0  0  0
 20 21  1  0  0  0  0
 20 22  2  0  0  0  0
  3 23  1  0  0  0  0
  3 24  1  0  0  0  0
M  CHG  2  21  -1  25   1
M  END
>  <Name>
Penicillin V potassium salt

>  <CAS>
132-98-9

>  <Formula>
C16H17KN2O5S

>  <MolWt>
388.48 

>  <Bioactivity>
Penicillin V potassium is a broad-spectrum penicillin antibiotic used orally in the treatment of mild to moderate infections by susceptible gram-positive organisms.


>  <Pathways>
Microbiology & Virology

>  <Target>
Antibiotic

>  <Receptor>
Others

>  <Reference>
1. Sánchez-Morillas L, et al. Recent Pat Inflamm Allergy Drug Discov. 2014 Jan;8(1):74-6.

$$$$
T0711
  Mrv1561503291623562D          

 21 22  0  0  0  0            999 V2000
    2.1434   -2.8875    0.0000 C   0  0  0  0  0  0  0  0  0  0  0  0
    2.1434   -3.7125    0.0000 C   0  0  0  0  0  0  0  0  0  0  0  0
    2.8579   -4.1250    0.0000 C   0  0  0  0  0  0  0  0  0  0  0  0
    3.5724   -3.7125    0.0000 N   0  0  0  0  0  0  0  0  0  0  0  0
    4.2868   -4.1250    0.0000 C   0  0  0  0  0  0  0  0  0  0  0  0
    5.0013   -3.7125    0.0000 C   0  0  0  0  0  0  0  0  0  0  0  0
    5.7158   -4.1250    0.0000 C   0  0  0  0  0  0  0  0  0  0  0  0
    5.7158   -4.9500    0.0000 C   0  0  0  0  0  0  0  0  0  0  0  0
    6.4302   -5.3625    0.0000 N   0  3  0  0  0  0  0  0  0  0  0  0
    6.4302   -6.1875    0.0000 O   0  0  0  0  0  0  0  0  0  0  0  0
    7.1447   -4.9500    0.0000 O   0  5  0  0  0  0  0  0  0  0  0  0
    5.0013   -5.3625    0.0000 C   0  0  0  0  0  0  0  0  0  0  0  0
    4.2868   -4.9500    0.0000 C   0  0  0  0  0  0  0  0  0  0  0  0
    5.0013   -2.8875    0.0000 Cl  0  0  0  0  0  0  0  0  0  0  0  0
    2.8579   -4.9500    0.0000 O   0  0  0  0  0  0  0  0  0  0  0  0
    1.4289   -4.1250    0.0000 C   0  0  0  0  0  0  0  0  0  0  0  0
    0.7145   -3.7125    0.0000 C   0  0  0  0  0  0  0  0  0  0  0  0
    0.7145   -2.8875    0.0000 C   0  0  0  0  0  0  0  0  0  0  0  0
    1.4289   -2.4750    0.0000 C   0  0  0  0  0  0  0  0  0  0  0  0
    1.4289   -1.6500    0.0000 Cl  0  0  0  0  0  0  0  0  0  0  0  0
    1.4289   -4.9500    0.0000 O   0  0  0  0  0  0  0  0  0  0  0  0
  1  2  2  0  0  0  0
  2  3  1  0  0  0  0
  3  4  1  0  0  0  0
  4  5  1  0  0  0  0
  5  6  2  0  0  0  0
  6  7  1  0  0  0  0
  7  8  2  0  0  0  0
  8  9  1  0  0  0  0
  9 10  2  0  0  0  0
  9 11  1  0  0  0  0
  8 12  1  0  0  0  0
 12 13  2  0  0  0  0
  5 13  1  0  0  0  0
  6 14  1  0  0  0  0
  3 15  2  0  0  0  0
  2 16  1  0  0  0  0
 16 17  2  0  0  0  0
 17 18  1  0  0  0  0
 18 19  2  0  0  0  0
  1 19  1  0  0  0  0
 19 20  1  0  0  0  0
 16 21  1  0  0  0  0
M  CHG  2   9   1  11  -1
M  END
>  <Name>
Niclosamide

>  <CAS>
50-65-7

>  <Formula>
C13H8Cl2N2O4

>  <MolWt>
327.12 

>  <Bioactivity>
An antihelmintic that is active against most tapeworms. (From Martindale, The Extra Pharmacopoeia, 30th ed, p48)

>  <Pathways>
JAK/STAT Signaling; Ubiquitination

>  <Target>
STAT inhibitor; Autophagy activator

>  <Receptor>
STAT3; Autophagy

>  <Reference>
1. Ren X, et al. ACS Med Chem Lett, 2010, 1(9), 454-459.

$$$$
T0915
  Mrv1561503291623562D          

 12 11  0  0  0  0            999 V2000
    1.0461    1.4289    0.0000 C   0  0  0  0  0  0  0  0  0  0  0  0
    1.7605    1.8414    0.0000 N   0  0  0  0  0  0  0  0  0  0  0  0
    1.7605    2.6664    0.0000 C   0  0  0  0  0  0  0  0  0  0  0  0
    2.4750    1.4289    0.0000 C   0  0  0  0  0  0  0  0  0  0  0  0
    3.1895    1.8414    0.0000 S   0  0  0  0  0  0  0  0  0  0  0  0
    3.9039    1.4289    0.0000 S   0  0  0  0  0  0  0  0  0  0  0  0
    4.6184    1.8414    0.0000 C   0  0  0  0  0  0  0  0  0  0  0  0
    5.3329    1.4289    0.0000 N   0  0  0  0  0  0  0  0  0  0  0  0
    6.0474    1.8414    0.0000 C   0  0  0  0  0  0  0  0  0  0  0  0
    5.3329    0.6039    0.0000 C   0  0  0  0  0  0  0  0  0  0  0  0
    4.6184    2.6664    0.0000 S   0  0  0  0  0  0  0  0  0  0  0  0
    2.4750    0.6039    0.0000 S   0  0  0  0  0  0  0  0  0  0  0  0
  1  2  1  0  0  0  0
  2  3  1  0  0  0  0
  2  4  1  0  0  0  0
  4  5  1  0  0  0  0
  5  6  1  0  0  0  0
  6  7  1  0  0  0  0
  7  8  1  0  0  0  0
  8  9  1  0  0  0  0
  8 10  1  0  0  0  0
  7 11  2  0  0  0  0
  4 12  2  0  0  0  0
M  END
>  <Name>
TMTD

>  <CAS>
137-26-8

>  <Formula>
C6H12N2S4

>  <MolWt>
240.43 

>  <Bioactivity>
Accelerants play a major role in chemistry. Most chemical reactions can be hastened with an accelerant. Accelerants alter a chemical bond, speed up a chemical process, or bring organisms back to homeostasis.

>  <Pathways>
Microbiology & Virology

>  <Target>
Antibiotic

>  <Receptor>
Others

>  <Reference>
1. Zhang L, et al. Spectrochim Acta A Mol Biomol Spectrosc. 2014 Dec 10;133:411-6. 

$$$$
T0500
  Mrv1561503291623562D          

 13 14  0  0  0  0            999 V2000
    0.0000   -1.6500    0.0000 C   0  0  0  0  0  0  0  0  0  0  0  0
    0.7145   -1.2375    0.0000 C   0  0  0  0  0  0  0  0  0  0  0  0
    0.7145   -0.4125    0.0000 C   0  0  0  0  0  0  0  0  0  0  0  0
   -0.0000    0.0000    0.0000 N   0  0  0  0  0  0  0  0  0  0  0  0
   -0.7145   -0.4125    0.0000 C   0  0  0  0  0  0  0  0  0  0  0  0
   -0.7145   -1.2375    0.0000 C   0  0  0  0  0  0  0  0  0  0  0  0
    1.4289    0.0000    0.0000 C   0  0  0  0  0  0  0  0  0  0  0  0
    2.1434   -0.4125    0.0000 C   0  0  0  0  0  0  0  0  0  0  0  0
    2.8579    0.0000    0.0000 Cl  0  0  0  0  0  0  0  0  0  0  0  0
    2.1434   -1.2375    0.0000 C   0  0  0  0  0  0  0  0  0  0  0  0
    1.4289   -1.6500    0.0000 C   0  0  0  0  0  0  0  0  0  0  0  0
    1.4289   -2.4750    0.0000 Cl  0  0  0  0  0  0  0  0  0  0  0  0
    1.4289    0.8250    0.0000 O   0  0  0  0  0  0  0  0  0  0  0  0
  1  2  2  0  0  0  0
  2  3  1  0  0  0  0
  3  4  2  0  0  0  0
  4  5  1  0  0  0  0
  5  6  2  0  0  0  0
  1  6  1  0  0  0  0
  3  7  1  0  0  0  0
  7  8  2  0  0  0  0
  8  9  1  0  0  0  0
  8 10  1  0  0  0  0
 10 11  2  0  0  0  0
  2 11  1  0  0  0  0
 11 12  1  0  0  0  0
  7 13  1  0  0  0  0
M  END
>  <Name>
Capitrol

>  <CAS>
773-76-2

>  <Formula>
C9H5Cl2NO

>  <MolWt>
214.05 

>  <Bioactivity>
Chloroxine is a synthetic antibacterial compound that is effective in the treatment of dandruff and seborrheic dermatitis when incorporated in a shampoo.

>  <Pathways>
Microbiology & Virology

>  <Target>
Antibiotic

>  <Receptor>
Others

>  <Reference>
1. Malaveille C, et al. IARC Sci Publ. 1991;(115):261-6.

$$$$
83-73-8
  Mrv1561503291623562D          

 13 14  0  0  0  0            999 V2000
    0.0000   -1.6500    0.0000 C   0  0  0  0  0  0  0  0  0  0  0  0
    0.7145   -1.2375    0.0000 C   0  0  0  0  0  0  0  0  0  0  0  0
    0.7145   -0.4125    0.0000 C   0  0  0  0  0  0  0  0  0  0  0  0
   -0.0000    0.0000    0.0000 N   0  0  0  0  0  0  0  0  0  0  0  0
   -0.7145   -0.4125    0.0000 C   0  0  0  0  0  0  0  0  0  0  0  0
   -0.7145   -1.2375    0.0000 C   0  0  0  0  0  0  0  0  0  0  0  0
    1.4289    0.0000    0.0000 C   0  0  0  0  0  0  0  0  0  0  0  0
    2.1434   -0.4125    0.0000 C   0  0  0  0  0  0  0  0  0  0  0  0
    2.8579    0.0000    0.0000 I   0  0  0  0  0  0  0  0  0  0  0  0
    2.1434   -1.2375    0.0000 C   0  0  0  0  0  0  0  0  0  0  0  0
    1.4289   -1.6500    0.0000 C   0  0  0  0  0  0  0  0  0  0  0  0
    1.4289   -2.4750    0.0000 I   0  0  0  0  0  0  0  0  0  0  0  0
    1.4289    0.8250    0.0000 O   0  0  0  0  0  0  0  0  0  0  0  0
  1  2  2  0  0  0  0
  2  3  1  0  0  0  0
  3  4  2  0  0  0  0
  4  5  1  0  0  0  0
  5  6  2  0  0  0  0
  1  6  1  0  0  0  0
  3  7  1  0  0  0  0
  7  8  2  0  0  0  0
  8  9  1  0  0  0  0
  8 10  1  0  0  0  0
 10 11  2  0  0  0  0
  2 11  1  0  0  0  0
 11 12  1  0  0  0  0
  7 13  1  0  0  0  0
M  END
>  <Name>
Iodoquinol

>  <CAS>
83-73-8

>  <Formula>
C9H5I2NO

>  <MolWt>
396.96 

>  <Bioactivity>
One of the halogenated 8-quinolinols widely used as an intestinal antiseptic, especially as an antiamebic agent. It is also used topically in other infections and may cause CNS and eye damage. It is known by very many similar trade names world-wide. 

>  <Pathways>
Others

>  <Target>
Others

>  <Receptor>
Others

>  <Reference>
1. Fisher AK, et al. J Toxicol Clin Toxicol. 1993;31(1):113-20.

$$$$
57-85-2
  Mrv1561503291623562D          

 25 28  0  0  1  0            999 V2000
    2.3387    0.7029    0.0000 C   0  0  2  0  0  0  0  0  0  0  0  0
    2.8705    0.0722    0.0000 C   0  0  2  0  0  0  0  0  0  0  0  0
    3.6826    0.2174    0.0000 C   0  0  1  0  0  0  0  0  0  0  0  0
    3.9629    0.9934    0.0000 C   0  0  2  0  0  0  0  0  0  0  0  0
    4.7875    0.9666    0.0000 C   0  0  1  0  0  0  0  0  0  0  0  0
    5.2939    1.6179    0.0000 O   0  0  0  0  0  0  0  0  0  0  0  0
    6.1111    1.5050    0.0000 C   0  0  0  0  0  0  0  0  0  0  0  0
    6.6175    2.1564    0.0000 C   0  0  0  0  0  0  0  0  0  0  0  0
    7.4347    2.0435    0.0000 C   0  0  0  0  0  0  0  0  0  0  0  0
    6.4220    0.7409    0.0000 O   0  0  0  0  0  0  0  0  0  0  0  0
    5.0168    0.1741    0.0000 C   0  0  0  0  0  0  0  0  0  0  0  0
    4.3340   -0.2889    0.0000 C   0  0  0  0  0  0  0  0  0  0  0  0
    4.3228    1.7357    0.0000 C   0  0  0  0  0  0  0  0  0  0  0  0
    3.4311    1.6241    0.0000 C   0  0  0  0  0  0  0  0  0  0  0  0
    2.6190    1.4789    0.0000 C   0  0  0  0  0  0  0  0  0  0  0  0
    2.5902   -0.7037    0.0000 C   0  0  0  0  0  0  0  0  0  0  0  0
    1.7781   -0.8489    0.0000 C   0  0  0  0  0  0  0  0  0  0  0  0
    1.2463   -0.2182    0.0000 C   0  0  0  0  0  0  0  0  0  0  0  0
    0.4342   -0.3634    0.0000 C   0  0  0  0  0  0  0  0  0  0  0  0
   -0.0976    0.2673    0.0000 C   0  0  0  0  0  0  0  0  0  0  0  0
   -0.9098    0.1221    0.0000 O   0  0  0  0  0  0  0  0  0  0  0  0
    0.1827    1.0432    0.0000 C   0  0  0  0  0  0  0  0  0  0  0  0
    0.9948    1.1884    0.0000 C   0  0  0  0  0  0  0  0  0  0  0  0
    1.5266    0.5577    0.0000 C   0  0  2  0  0  0  0  0  0  0  0  0
    1.8069    1.3336    0.0000 C   0  0  0  0  0  0  0  0  0  0  0  0
  1  2  1  0  0  0  0
  2  3  1  0  0  0  0
  3  4  1  0  0  0  0
  4  5  1  0  0  0  0
  5  6  1  1  0  0  0
  6  7  1  0  0  0  0
  7  8  1  0  0  0  0
  8  9  1  0  0  0  0
  7 10  2  0  0  0  0
  5 11  1  0  0  0  0
 11 12  1  0  0  0  0
  3 12  1  1  0  0  0
  4 13  1  1  0  0  0
  4 14  1  0  0  0  0
 14 15  1  0  0  0  0
  1 15  1  1  0  0  0
  2 16  1  6  0  0  0
 16 17  1  0  0  0  0
 17 18  1  0  0  0  0
 18 19  2  0  0  0  0
 19 20  1  0  0  0  0
 20 21  2  0  0  0  0
 20 22  1  0  0  0  0
 22 23  1  0  0  0  0
 23 24  1  0  0  0  0
  1 24  1  0  0  0  0
 18 24  1  0  0  0  0
 24 25  1  1  0  0  0
M  END
>  <Name>
Testosterone propionate

>  <CAS>
57-85-2

>  <Formula>
C22H32O3

>  <MolWt>
344.49 

>  <Bioactivity>
An ester of TESTOSTERONE with a propionate substitution at the 17-beta position.  

>  <Pathways>
Endocrinology/ Hormones

>  <Target>
Androgen receptor agonist;COMT inhibitor

>  <Receptor>
Androgens receptor;COMT

>  <Reference>
1. Small EJ, Ryan CJ. J Urol. 2006 Dec; 176(6 Pt 2):S66-71.

$$$$
T1304
  Mrv1561503291623562D          

 35 36  0  0  1  0            999 V2000
   -0.8444    0.3992    0.0000 C   0  0  0  0  0  0  0  0  0  0  0  0
   -0.1299    0.8117    0.0000 C   0  0  0  0  0  0  0  0  0  0  0  0
    0.5846    0.3992    0.0000 C   0  0  0  0  0  0  0  0  0  0  0  0
    1.2990    0.8117    0.0000 C   0  0  0  0  0  0  0  0  0  0  0  0
    0.7687    1.4437    0.0000 O   0  0  0  0  0  0  0  0  0  0  0  0
    2.0135    0.3992    0.0000 C   0  0  0  0  0  0  0  0  0  0  0  0
    2.7280    0.8117    0.0000 C   0  0  0  0  0  0  0  0  0  0  0  0
    2.7280    1.6367    0.0000 Cl  0  0  0  0  0  0  0  0  0  0  0  0
    3.4425    0.3992    0.0000 C   0  0  0  0  0  0  0  0  0  0  0  0
    3.4425   -0.4258    0.0000 C   0  0  0  0  0  0  0  0  0  0  0  0
    2.7280   -0.8383    0.0000 C   0  0  0  0  0  0  0  0  0  0  0  0
    2.0135   -0.4258    0.0000 C   0  0  0  0  0  0  0  0  0  0  0  0
    1.2990   -0.8383    0.0000 C   0  0  0  0  0  0  0  0  0  0  0  0
    0.5846   -0.4258    0.0000 C   0  0  0  0  0  0  0  0  0  0  0  0
   -0.1299   -0.8383    0.0000 C   0  0  0  0  0  0  0  0  0  0  0  0
   -0.1299   -1.6633    0.0000 O   0  0  0  0  0  0  0  0  0  0  0  0
   -0.8444   -0.4258    0.0000 C   0  0  0  0  0  0  0  0  0  0  0  0
   -0.8444   -1.2508    0.0000 O   0  0  0  0  0  0  0  0  0  0  0  0
   -1.5588   -0.8383    0.0000 C   0  0  0  0  0  0  0  0  0  0  0  0
   -1.5588   -1.6633    0.0000 O   0  0  0  0  0  0  0  0  0  0  0  0
   -2.2733   -0.4258    0.0000 C   0  0  0  0  0  0  0  0  0  0  0  0
   -2.2733    0.3992    0.0000 C   0  0  0  0  0  0  0  0  0  0  0  0
   -2.9878    0.8117    0.0000 O   0  0  0  0  0  0  0  0  0  0  0  0
   -1.5588    0.8117    0.0000 C   0  0  0  0  0  0  0  0  0  0  0  0
   -1.5588    1.6367    0.0000 N   0  0  0  0  0  0  0  0  0  0  0  0
   -0.8444    2.0492    0.0000 C   0  0  0  0  0  0  0  0  0  0  0  0
   -2.2733    2.0492    0.0000 C   0  0  0  0  0  0  0  0  0  0  0  0
   -2.9878   -0.8383    0.0000 C   0  0  0  0  0  0  0  0  0  0  0  0
   -2.9878   -1.6633    0.0000 O   0  0  0  0  0  0  0  0  0  0  0  0
   -3.7023   -0.4258    0.0000 N   0  0  0  0  0  0  0  0  0  0  0  0
    1.2990   -1.6633    0.0000 O   0  0  0  0  0  0  0  0  0  0  0  0
    2.7280   -1.6633    0.0000 O   0  0  0  0  0  0  0  0  0  0  0  0
    1.8293    1.4437    0.0000 C   0  0  0  0  0  0  0  0  0  0  0  0
    6.6246    0.0000    0.0000 H   0  3  0  0  0  0  0  0  0  0  0  0
    5.7996    0.0000    0.0000 Cl  0  5  0  0  0  0  0  0  0  0  0  0
  1  2  1  0  0  0  0
  2  3  1  0  0  0  0
  3  4  1  0  0  0  0
  4  5  1  0  0  0  0
  4  6  1  0  0  0  0
  6  7  2  0  0  0  0
  7  8  1  0  0  0  0
  7  9  1  0  0  0  0
  9 10  2  0  0  0  0
 10 11  1  0  0  0  0
 11 12  2  0  0  0  0
  6 12  1  0  0  0  0
 12 13  1  0  0  0  0
 13 14  2  0  0  0  0
  3 14  1  0  0  0  0
 14 15  1  0  0  0  0
 15 16  2  0  0  0  0
 15 17  1  0  0  0  0
  1 17  1  0  0  0  0
 17 18  1  0  0  0  0
 17 19  1  0  0  0  0
 19 20  2  0  0  0  0
 19 21  1  0  0  0  0
 21 22  1  0  0  0  0
 22 23  2  0  0  0  0
 22 24  1  0  0  0  0
  1 24  1  0  0  0  0
 24 25  1  0  0  0  0
 25 26  1  0  0  0  0
 25 27  1  0  0  0  0
 21 28  2  0  0  0  0
 28 29  1  0  0  0  0
 28 30  1  0  0  0  0
 13 31  1  0  0  0  0
 11 32  1  0  0  0  0
  4 33  1  0  0  0  0
M  CHG  2  34   1  35  -1
M  END
>  <Name>
Chlortetracycline HCl

>  <CAS>
64-72-2

>  <Formula>
C22H23ClN2O8.HCl

>  <MolWt>
515.35 

>  <Bioactivity>
Chlortetracycline HCl is the first identified tetracycline antibiotic.

>  <Pathways>
Microbiology & Virology

>  <Target>
Antibiotic

>  <Receptor>
30S ribosomal protein

>  <Reference>
1. Chopra I, et al. J Antimicrob Chemother, 1992, 29(3), 245-277.

$$$$
519-37-9
  Mrv1561503291623562D          

 16 17  0  0  0  0            999 V2000
   -0.6284   -0.6979    0.0000 C   0  0  0  0  0  0  0  0  0  0  0  0
   -0.1435   -1.3654    0.0000 N   0  0  0  0  0  0  0  0  0  0  0  0
    0.6411   -1.1104    0.0000 C   0  0  0  0  0  0  0  0  0  0  0  0
    0.6411   -0.2854    0.0000 C   0  0  0  0  0  0  0  0  0  0  0  0
   -0.1435   -0.0305    0.0000 N   0  0  0  0  0  0  0  0  0  0  0  0
   -0.3984    0.7541    0.0000 C   0  0  0  0  0  0  0  0  0  0  0  0
   -1.2054    0.9256    0.0000 C   0  0  0  0  0  0  0  0  0  0  0  0
   -1.4604    1.7103    0.0000 O   0  0  0  0  0  0  0  0  0  0  0  0
    1.3556    0.1271    0.0000 C   0  0  0  0  0  0  0  0  0  0  0  0
    2.0701   -0.2854    0.0000 N   0  0  0  0  0  0  0  0  0  0  0  0
    2.7845    0.1271    0.0000 C   0  0  0  0  0  0  0  0  0  0  0  0
    2.0701   -1.1104    0.0000 C   0  0  0  0  0  0  0  0  0  0  0  0
    1.3556   -1.5229    0.0000 N   0  0  0  0  0  0  0  0  0  0  0  0
    1.3556   -2.3479    0.0000 C   0  0  0  0  0  0  0  0  0  0  0  0
    2.7845   -1.5229    0.0000 O   0  0  0  0  0  0  0  0  0  0  0  0
    1.3556    0.9521    0.0000 O   0  0  0  0  0  0  0  0  0  0  0  0
  1  2  2  0  0  0  0
  2  3  1  0  0  0  0
  3  4  2  0  0  0  0
  4  5  1  0  0  0  0
  1  5  1  0  0  0  0
  5  6  1  0  0  0  0
  6  7  1  0  0  0  0
  7  8  1  0  0  0  0
  4  9  1  0  0  0  0
  9 10  1  0  0  0  0
 10 11  1  0  0  0  0
 10 12  1  0  0  0  0
 12 13  1  0  0  0  0
  3 13  1  0  0  0  0
 13 14  1  0  0  0  0
 12 15  2  0  0  0  0
  9 16  2  0  0  0  0
M  END
>  <Name>
Etofylline

>  <CAS>
519-37-9

>  <Formula>
C9H12N4O3

>  <MolWt>
224.22 

>  <Bioactivity>
Etofylline is used as a Bronchodilator Agent.

>  <Pathways>
Others

>  <Target>
Others

>  <Receptor>
Others

>  <Reference>
1. Nirogi RV, et al. J Chromatogr B Analyt Technol Biomed Life Sci. 2007 Apr 1;848(2):271-6.

$$$$
611-75-6
  Mrv1561503291623562D          

 20 19  0  0  0  0            999 V2000
    0.4125    0.0000    0.0000 H   0  3  0  0  0  0  0  0  0  0  0  0
    4.9131   -0.9167    0.0000 C   0  0  0  0  0  0  0  0  0  0  0  0
    4.9131   -1.7417    0.0000 C   0  0  0  0  0  0  0  0  0  0  0  0
    5.6275   -2.1542    0.0000 Br  0  0  0  0  0  0  0  0  0  0  0  0
    4.1986   -2.1542    0.0000 C   0  0  0  0  0  0  0  0  0  0  0  0
    3.4841   -1.7417    0.0000 C   0  0  0  0  0  0  0  0  0  0  0  0
    2.7696   -2.1542    0.0000 Br  0  0  0  0  0  0  0  0  0  0  0  0
    3.4841   -0.9167    0.0000 C   0  0  0  0  0  0  0  0  0  0  0  0
    4.1986   -0.5042    0.0000 C   0  0  0  0  0  0  0  0  0  0  0  0
    4.1986    0.3208    0.0000 C   0  0  0  0  0  0  0  0  0  0  0  0
    5.0236    0.3208    0.0000 N   0  0  0  0  0  0  0  0  0  0  0  0
    4.1986    1.1458    0.0000 C   0  0  0  0  0  0  0  0  0  0  0  0
    3.4841    1.5583    0.0000 C   0  0  0  0  0  0  0  0  0  0  0  0
    3.4841    2.3833    0.0000 C   0  0  0  0  0  0  0  0  0  0  0  0
    4.1986    2.7958    0.0000 C   0  0  0  0  0  0  0  0  0  0  0  0
    4.9131    2.3833    0.0000 C   0  0  0  0  0  0  0  0  0  0  0  0
    4.9131    1.5583    0.0000 C   0  0  0  0  0  0  0  0  0  0  0  0
    3.3736    0.3208    0.0000 C   0  0  0  0  0  0  0  0  0  0  0  0
    2.7696   -0.5042    0.0000 N   0  0  0  0  0  0  0  0  0  0  0  0
   -0.4125    0.0000    0.0000 Cl  0  5  0  0  0  0  0  0  0  0  0  0
  2  3  2  0  0  0  0
  3  4  1  0  0  0  0
  3  5  1  0  0  0  0
  5  6  2  0  0  0  0
  6  7  1  0  0  0  0
  6  8  1  0  0  0  0
  8  9  2  0  0  0  0
  2  9  1  0  0  0  0
  9 10  1  0  0  0  0
 10 11  1  0  0  0  0
 10 12  1  0  0  0  0
 12 13  1  0  0  0  0
 13 14  1  0  0  0  0
 14 15  1  0  0  0  0
 15 16  1  0  0  0  0
 16 17  1  0  0  0  0
 12 17  1  0  0  0  0
 10 18  1  0  0  0  0
  8 19  1  0  0  0  0
M  CHG  2   1   1  20  -1
M  END
>  <Name>
Bromhexine HCl

>  <CAS>
611-75-6

>  <Formula>
C14H21Br2ClN2

>  <MolWt>
412.59 

>  <Bioactivity>
A mucolytic agent used in the treatment of respiratory disorders associated with viscid or excessive mucus.

>  <Pathways>
Others

>  <Target>
Others

>  <Receptor>
Others

>  <Reference>
1. Prescrire Int. 2015 Apr;24(159):98.

$$$$
59-30-3
  Mrv1561503291623562D          

 32 34  0  0  1  0            999 V2000
   -0.7145   -6.1875    0.0000 C   0  0  1  0  0  0  0  0  0  0  0  0
   -1.4289   -6.6000    0.0000 N   0  0  0  0  0  0  0  0  0  0  0  0
   -2.1434   -6.1875    0.0000 C   0  0  0  0  0  0  0  0  0  0  0  0
   -2.8579   -6.6000    0.0000 C   0  0  0  0  0  0  0  0  0  0  0  0
   -2.8579   -7.4250    0.0000 C   0  0  0  0  0  0  0  0  0  0  0  0
   -3.5724   -7.8375    0.0000 C   0  0  0  0  0  0  0  0  0  0  0  0
   -4.2868   -7.4250    0.0000 C   0  0  0  0  0  0  0  0  0  0  0  0
   -5.0013   -7.8375    0.0000 N   0  0  0  0  0  0  0  0  0  0  0  0
   -5.7158   -7.4250    0.0000 C   0  0  0  0  0  0  0  0  0  0  0  0
   -6.4302   -7.8375    0.0000 C   0  0  0  0  0  0  0  0  0  0  0  0
   -7.1447   -7.4250    0.0000 N   0  0  0  0  0  0  0  0  0  0  0  0
   -7.8592   -7.8375    0.0000 C   0  0  0  0  0  0  0  0  0  0  0  0
   -7.8592   -8.6625    0.0000 C   0  0  0  0  0  0  0  0  0  0  0  0
   -7.1447   -9.0750    0.0000 N   0  0  0  0  0  0  0  0  0  0  0  0
   -6.4302   -8.6625    0.0000 C   0  0  0  0  0  0  0  0  0  0  0  0
   -8.5737   -9.0750    0.0000 N   0  0  0  0  0  0  0  0  0  0  0  0
   -9.2881   -8.6625    0.0000 C   0  0  0  0  0  0  0  0  0  0  0  0
   -9.2881   -7.8375    0.0000 N   0  0  0  0  0  0  0  0  0  0  0  0
   -8.5737   -7.4250    0.0000 C   0  0  0  0  0  0  0  0  0  0  0  0
   -8.5737   -6.6000    0.0000 O   0  0  0  0  0  0  0  0  0  0  0  0
  -10.0026   -9.0750    0.0000 N   0  0  0  0  0  0  0  0  0  0  0  0
   -4.2868   -6.6000    0.0000 C   0  0  0  0  0  0  0  0  0  0  0  0
   -3.5724   -6.1875    0.0000 C   0  0  0  0  0  0  0  0  0  0  0  0
   -2.1434   -5.3625    0.0000 O   0  0  0  0  0  0  0  0  0  0  0  0
   -0.0000   -6.6000    0.0000 C   0  0  0  0  0  0  0  0  0  0  0  0
    0.7145   -6.1875    0.0000 C   0  0  0  0  0  0  0  0  0  0  0  0
    1.4289   -6.6000    0.0000 C   0  0  0  0  0  0  0  0  0  0  0  0
    2.1434   -6.1875    0.0000 O   0  0  0  0  0  0  0  0  0  0  0  0
    1.4289   -7.4250    0.0000 O   0  0  0  0  0  0  0  0  0  0  0  0
   -0.7145   -5.3625    0.0000 C   0  0  0  0  0  0  0  0  0  0  0  0
   -0.0000   -4.9500    0.0000 O   0  0  0  0  0  0  0  0  0  0  0  0
   -1.4289   -4.9500    0.0000 O   0  0  0  0  0  0  0  0  0  0  0  0
  1  2  1  6  0  0  0
  2  3  1  0  0  0  0
  3  4  1  0  0  0  0
  4  5  2  0  0  0  0
  5  6  1  0  0  0  0
  6  7  2  0  0  0  0
  7  8  1  0  0  0  0
  8  9  1  0  0  0  0
  9 10  1  0  0  0  0
 10 11  2  0  0  0  0
 11 12  1  0  0  0  0
 12 13  2  0  0  0  0
 13 14  1  0  0  0  0
 14 15  2  0  0  0  0
 10 15  1  0  0  0  0
 13 16  1  0  0  0  0
 16 17  1  0  0  0  0
 17 18  2  0  0  0  0
 18 19  1  0  0  0  0
 12 19  1  0  0  0  0
 19 20  2  0  0  0  0
 17 21  1  0  0  0  0
  7 22  1  0  0  0  0
 22 23  2  0  0  0  0
  4 23  1  0  0  0  0
  3 24  2  0  0  0  0
  1 25  1  0  0  0  0
 25 26  1  0  0  0  0
 26 27  1  0  0  0  0
 27 28  1  0  0  0  0
 27 29  2  0  0  0  0
  1 30  1  0  0  0  0
 30 31  1  0  0  0  0
 30 32  2  0  0  0  0
M  END
>  <Name>
Folic acid

>  <CAS>
59-30-3

>  <Formula>
C19H19N7O6

>  <MolWt>
441.40 

>  <Bioactivity>
A member of the vitamin B family that stimulates the hematopoietic system. It is present in the liver and kidney and is found in mushrooms, spinach, yeast, green leaves, and grasses (POACEAE). Folic acid is used in the treatment and prevention of folate deficiencies and megaloblastic anemia.  

>  <Pathways>
Vitamin

>  <Target>
VB

>  <Receptor>
VB9

>  <Reference>
1. Shen F, et al. Biochemistry. 1995 Apr 25;34(16):5660-5. 

$$$$
81-23-2
  Mrv1561503291623562D          

 29 32  0  0  1  0            999 V2000
    2.8705    0.0722    0.0000 C   0  0  1  0  0  0  0  0  0  0  0  0
    3.6826    0.2174    0.0000 C   0  0  1  0  0  0  0  0  0  0  0  0
    3.9629    0.9934    0.0000 C   0  0  1  0  0  0  0  0  0  0  0  0
    4.7875    0.9666    0.0000 C   0  0  1  0  0  0  0  0  0  0  0  0
    5.2939    1.6179    0.0000 C   0  0  1  0  0  0  0  0  0  0  0  0
    6.1111    1.5050    0.0000 C   0  0  0  0  0  0  0  0  0  0  0  0
    6.6175    2.1564    0.0000 C   0  0  0  0  0  0  0  0  0  0  0  0
    7.4347    2.0435    0.0000 C   0  0  0  0  0  0  0  0  0  0  0  0
    7.9411    2.6948    0.0000 O   0  0  0  0  0  0  0  0  0  0  0  0
    7.7456    1.2793    0.0000 O   0  0  0  0  0  0  0  0  0  0  0  0
    4.9830    2.3821    0.0000 C   0  0  0  0  0  0  0  0  0  0  0  0
    5.0168    0.1741    0.0000 C   0  0  0  0  0  0  0  0  0  0  0  0
    4.3340   -0.2889    0.0000 C   0  0  0  0  0  0  0  0  0  0  0  0
    3.4311    1.6241    0.0000 C   0  0  0  0  0  0  0  0  0  0  0  0
    3.7114    2.4000    0.0000 O   0  0  0  0  0  0  0  0  0  0  0  0
    2.6190    1.4789    0.0000 C   0  0  0  0  0  0  0  0  0  0  0  0
    2.3387    0.7029    0.0000 C   0  0  2  0  0  0  0  0  0  0  0  0
    1.5266    0.5577    0.0000 C   0  0  2  0  0  0  0  0  0  0  0  0
    1.2463   -0.2182    0.0000 C   0  0  1  0  0  0  0  0  0  0  0  0
    0.4342   -0.3634    0.0000 C   0  0  0  0  0  0  0  0  0  0  0  0
   -0.0976    0.2673    0.0000 C   0  0  0  0  0  0  0  0  0  0  0  0
   -0.9098    0.1221    0.0000 O   0  0  0  0  0  0  0  0  0  0  0  0
    0.1827    1.0432    0.0000 C   0  0  0  0  0  0  0  0  0  0  0  0
    0.9948    1.1884    0.0000 C   0  0  0  0  0  0  0  0  0  0  0  0
    1.7781   -0.8489    0.0000 C   0  0  0  0  0  0  0  0  0  0  0  0
    2.5902   -0.7037    0.0000 C   0  0  0  0  0  0  0  0  0  0  0  0
    3.1220   -1.3344    0.0000 O   0  0  0  0  0  0  0  0  0  0  0  0
    1.8069    1.3336    0.0000 C   0  0  0  0  0  0  0  0  0  0  0  0
    4.3228    1.7357    0.0000 C   0  0  0  0  0  0  0  0  0  0  0  0
  1  2  1  0  0  0  0
  2  3  1  0  0  0  0
  3  4  1  0  0  0  0
  4  5  1  1  0  0  0
  5  6  1  0  0  0  0
  6  7  1  0  0  0  0
  7  8  1  0  0  0  0
  8  9  1  0  0  0  0
  8 10  2  0  0  0  0
  5 11  1  6  0  0  0
  4 12  1  0  0  0  0
 12 13  1  0  0  0  0
  2 13  1  1  0  0  0
  3 14  1  0  0  0  0
 14 15  2  0  0  0  0
 14 16  1  0  0  0  0
 17 16  1  1  0  0  0
  1 17  1  0  0  0  0
 17 18  1  0  0  0  0
 18 19  1  0  0  0  0
 19 20  1  0  0  0  0
 20 21  1  0  0  0  0
 21 22  2  0  0  0  0
 21 23  1  0  0  0  0
 23 24  1  0  0  0  0
 18 24  1  0  0  0  0
 19 25  1  6  0  0  0
 25 26  1  0  0  0  0
  1 26  1  6  0  0  0
 26 27  2  0  0  0  0
 18 28  1  1  0  0  0
  3 29  1  1  0  0  0
M  END
>  <Name>
Dehydrocholic acid

>  <CAS>
81-23-2

>  <Formula>
C24H34O5

>  <MolWt>
402.52 

>  <Bioactivity>
A semisynthetic bile acid made from cholic acid. It is used as a cholagogue, hydrocholeretic, diuretic, and as a diagnostic aid.  

>  <Pathways>
Metabolism

>  <Target>
Lipid

>  <Receptor>
others

>  <Reference>
1. Mohamed AA, Matijevi? E. J Colloid Interface Sci. 2012 Feb 15;368(1):625-8.

$$$$
83-88-5
  Mrv1561503291623562D          

 27 29  0  0  0  0            999 V2000
   -1.4289   -0.8250    0.0000 C   0  0  0  0  0  0  0  0  0  0  0  0
   -2.1434   -0.4125    0.0000 C   0  0  0  0  0  0  0  0  0  0  0  0
   -2.1434    0.4125    0.0000 C   0  0  0  0  0  0  0  0  0  0  0  0
   -2.8579   -0.8250    0.0000 C   0  0  0  0  0  0  0  0  0  0  0  0
   -2.8579   -1.6500    0.0000 C   0  0  0  0  0  0  0  0  0  0  0  0
   -2.1434   -2.0625    0.0000 C   0  0  0  0  0  0  0  0  0  0  0  0
   -1.4289   -1.6500    0.0000 C   0  0  0  0  0  0  0  0  0  0  0  0
   -0.7145   -2.0625    0.0000 N   0  0  0  0  0  0  0  0  0  0  0  0
   -0.7145   -2.8875    0.0000 C   0  0  0  0  0  0  0  0  0  0  0  0
   -0.0000   -3.3000    0.0000 N   0  0  0  0  0  0  0  0  0  0  0  0
   -0.0000   -4.1250    0.0000 C   0  0  0  0  0  0  0  0  0  0  0  0
    0.7145   -4.5375    0.0000 O   0  0  0  0  0  0  0  0  0  0  0  0
   -0.7145   -4.5375    0.0000 N   0  0  0  0  0  0  0  0  0  0  0  0
   -1.4289   -4.1250    0.0000 C   0  0  0  0  0  0  0  0  0  0  0  0
   -1.4289   -3.3000    0.0000 C   0  0  0  0  0  0  0  0  0  0  0  0
   -2.1434   -2.8875    0.0000 N   0  0  0  0  0  0  0  0  0  0  0  0
   -2.1434   -4.5375    0.0000 O   0  0  0  0  0  0  0  0  0  0  0  0
   -0.0000   -1.6500    0.0000 C   0  0  0  0  0  0  0  0  0  0  0  0
    0.7145   -2.0625    0.0000 C   0  0  0  0  0  0  0  0  0  0  0  0
    1.4289   -1.6500    0.0000 C   0  0  0  0  0  0  0  0  0  0  0  0
    2.1434   -2.0625    0.0000 C   0  0  0  0  0  0  0  0  0  0  0  0
    2.8579   -1.6500    0.0000 C   0  0  0  0  0  0  0  0  0  0  0  0
    3.5724   -2.0625    0.0000 O   0  0  0  0  0  0  0  0  0  0  0  0
    2.1434   -2.8875    0.0000 O   0  0  0  0  0  0  0  0  0  0  0  0
    1.4289   -0.8250    0.0000 O   0  0  0  0  0  0  0  0  0  0  0  0
    0.7145   -2.8875    0.0000 O   0  0  0  0  0  0  0  0  0  0  0  0
   -3.5724   -0.4125    0.0000 C   0  0  0  0  0  0  0  0  0  0  0  0
  1  2  2  0  0  0  0
  2  3  1  0  0  0  0
  2  4  1  0  0  0  0
  4  5  2  0  0  0  0
  5  6  1  0  0  0  0
  6  7  2  0  0  0  0
  1  7  1  0  0  0  0
  7  8  1  0  0  0  0
  8  9  1  0  0  0  0
  9 10  2  0  0  0  0
 10 11  1  0  0  0  0
 11 12  2  0  0  0  0
 11 13  1  0  0  0  0
 13 14  1  0  0  0  0
 14 15  1  0  0  0  0
  9 15  1  0  0  0  0
 15 16  2  0  0  0  0
  6 16  1  0  0  0  0
 14 17  2  0  0  0  0
  8 18  1  0  0  0  0
 18 19  1  0  0  0  0
 19 20  1  0  0  0  0
 20 21  1  0  0  0  0
 21 22  1  0  0  0  0
 22 23  1  0  0  0  0
 21 24  1  0  0  0  0
 20 25  1  0  0  0  0
 19 26  1  0  0  0  0
  4 27  1  0  0  0  0
M  END
>  <Name>
Riboflavin

>  <CAS>
83-88-5

>  <Formula>
C17H20N4O6

>  <MolWt>
376.37 

>  <Bioactivity>
Nutritional factor found in milk, eggs, malted barley, liver, kidney, heart, and leafy vegetables. The richest natural source is yeast. It occurs in the free form only in the retina of the eye, in whey, and in urine; its principal forms in tissues and cells are as FLAVIN MONONUCLEOTIDE and FLAVIN-ADENINE DINUCLEOTIDE. 

>  <Pathways>
Vitamin

>  <Target>
VB

>  <Receptor>
VB2

>  <Reference>
1. Solovieva IM, et al. FEMS Microbiol Lett. 2005 Feb 1;243(1):51-8.

$$$$
T0884
  Mrv1561503291623562D          

 23 22  0  0  0  0            999 V2000
   19.5197    7.1447    0.0000 C   0  0  0  0  0  0  0  0  0  0  0  0
   18.8052    7.5572    0.0000 C   0  0  0  0  0  0  0  0  0  0  0  0
   18.0908    7.1447    0.0000 C   0  0  0  0  0  0  0  0  0  0  0  0
   17.3763    7.5572    0.0000 C   0  0  0  0  0  0  0  0  0  0  0  0
   16.6618    7.1447    0.0000 C   0  0  0  0  0  0  0  0  0  0  0  0
   15.9474    7.5572    0.0000 C   0  0  0  0  0  0  0  0  0  0  0  0
   15.2329    7.1447    0.0000 C   0  0  0  0  0  0  0  0  0  0  0  0
   14.5184    7.5572    0.0000 C   0  0  0  0  0  0  0  0  0  0  0  0
   13.8039    7.1447    0.0000 C   0  0  0  0  0  0  0  0  0  0  0  0
   13.0895    7.5572    0.0000 C   0  0  0  0  0  0  0  0  0  0  0  0
   12.3750    7.1447    0.0000 C   0  0  0  0  0  0  0  0  0  0  0  0
   11.6605    7.5572    0.0000 C   0  0  0  0  0  0  0  0  0  0  0  0
   20.2342    7.5572    0.0000 C   0  0  0  0  0  0  0  0  0  0  0  0
   20.9487    7.1447    0.0000 C   0  0  0  0  0  0  0  0  0  0  0  0
   21.6631    7.5572    0.0000 C   0  0  0  0  0  0  0  0  0  0  0  0
   22.3776    7.1447    0.0000 C   0  0  0  0  0  0  0  0  0  0  0  0
   23.0921    7.5572    0.0000 C   0  0  0  0  0  0  0  0  0  0  0  0
   23.8065    7.1447    0.0000 C   0  0  0  0  0  0  0  0  0  0  0  0
   24.5210    7.5572    0.0000 C   0  0  0  0  0  0  0  0  0  0  0  0
   25.2355    7.1447    0.0000 C   0  0  0  0  0  0  0  0  0  0  0  0
   25.9499    7.5572    0.0000 C   0  0  0  0  0  0  0  0  0  0  0  0
   26.6644    7.1447    0.0000 C   0  0  0  0  0  0  0  0  0  0  0  0
   27.3789    7.5572    0.0000 O   0  0  0  0  0  0  0  0  0  0  0  0
  1  2  1  0  0  0  0
  2  3  1  0  0  0  0
  3  4  1  0  0  0  0
  4  5  1  0  0  0  0
  5  6  1  0  0  0  0
  6  7  1  0  0  0  0
  7  8  1  0  0  0  0
  8  9  1  0  0  0  0
  9 10  1  0  0  0  0
 10 11  1  0  0  0  0
 11 12  1  0  0  0  0
  1 13  1  0  0  0  0
 13 14  1  0  0  0  0
 14 15  1  0  0  0  0
 15 16  1  0  0  0  0
 16 17  1  0  0  0  0
 17 18  1  0  0  0  0
 18 19  1  0  0  0  0
 19 20  1  0  0  0  0
 20 21  1  0  0  0  0
 21 22  1  0  0  0  0
 22 23  1  0  0  0  0
M  END
>  <Name>
Behenic alcohol

>  <CAS>
661-19-8

>  <Formula>
C22H46O

>  <MolWt>
326.60 

>  <Bioactivity>
Docosanol is a drug used for topical treatment for recurrent herpes simplex labialis episodes (episodes of cold sores or fever blisters). A saturated 22-carbon aliphatic alcohol, docosanol exhibits antiviral activity against many lipid enveloped viruses including herpes simplex virus (HSV). Docosanol inhibits fusion between the plasma membrane and the herpes simplex virus (HSV) envelope, thereby preventing viral entry into cells and subsequent viral replication. 

>  <Pathways>
Microbiology & Virology

>  <Target>
Antibiotic

>  <Receptor>
GP350, GP340

>  <Reference>
1. Leung DT, Sacks SL. Expert Opin Pharmacother. 2004 Dec;5(12):2567-71. 

$$$$
T0950
  Mrv1561503291623562D          

 47 49  0  0  1  0            999 V2000
   -0.3872    0.8636    0.0000 C   0  0  1  0  0  0  0  0  0  0  0  0
    0.3272    0.4511    0.0000 O   0  0  0  0  0  0  0  0  0  0  0  0
    0.3272   -0.3739    0.0000 C   0  0  2  0  0  0  0  0  0  0  0  0
   -0.3402   -0.8589    0.0000 O   0  0  0  0  0  0  0  0  0  0  0  0
   -0.0853   -1.6435    0.0000 C   0  0  1  0  0  0  0  0  0  0  0  0
    0.7397   -1.6435    0.0000 C   0  0  1  0  0  0  0  0  0  0  0  0
    1.2247   -2.3109    0.0000 O   0  0  0  0  0  0  0  0  0  0  0  0
    0.8891   -3.0646    0.0000 C   0  0  0  0  0  0  0  0  0  0  0  0
    0.0686   -3.1508    0.0000 O   0  0  0  0  0  0  0  0  0  0  0  0
   -0.2669   -3.9045    0.0000 C   0  0  2  0  0  0  0  0  0  0  0  0
    0.2180   -4.5719    0.0000 C   0  0  1  0  0  0  0  0  0  0  0  0
   -0.1176   -5.3256    0.0000 O   0  0  0  0  0  0  0  0  0  0  0  0
    1.0385   -4.4857    0.0000 C   0  0  2  0  0  0  0  0  0  0  0  0
    1.5234   -5.1531    0.0000 O   0  0  0  0  0  0  0  0  0  0  0  0
    1.3740   -3.7320    0.0000 C   0  0  1  0  0  0  0  0  0  0  0  0
    2.1945   -3.6458    0.0000 N   0  0  0  0  0  0  0  0  0  0  0  0
   -1.0874   -3.9907    0.0000 C   0  0  0  0  0  0  0  0  0  0  0  0
   -1.4230   -4.7444    0.0000 N   0  0  0  0  0  0  0  0  0  0  0  0
    0.9947   -0.8589    0.0000 C   0  0  1  0  0  0  0  0  0  0  0  0
    1.7793   -0.6039    0.0000 O   0  0  0  0  0  0  0  0  0  0  0  0
   -0.5702   -2.3109    0.0000 C   0  0  0  0  0  0  0  0  0  0  0  0
   -1.3907   -2.2247    0.0000 O   0  0  0  0  0  0  0  0  0  0  0  0
   -0.3872    1.6886    0.0000 C   0  0  2  0  0  0  0  0  0  0  0  0
    0.3272    2.1011    0.0000 O   0  0  0  0  0  0  0  0  0  0  0  0
    0.3272    2.9261    0.0000 C   0  0  1  0  0  0  0  0  0  0  0  0
   -0.3872    3.3386    0.0000 O   0  0  0  0  0  0  0  0  0  0  0  0
   -0.3872    4.1636    0.0000 C   0  0  1  0  0  0  0  0  0  0  0  0
    0.3272    4.5761    0.0000 C   0  0  1  0  0  0  0  0  0  0  0  0
    0.3272    5.4011    0.0000 O   0  0  0  0  0  0  0  0  0  0  0  0
    1.0417    4.1636    0.0000 C   0  0  2  0  0  0  0  0  0  0  0  0
    1.7562    4.5761    0.0000 O   0  0  0  0  0  0  0  0  0  0  0  0
    1.0417    3.3386    0.0000 C   0  0  1  0  0  0  0  0  0  0  0  0
    1.7562    2.9261    0.0000 N   0  0  0  0  0  0  0  0  0  0  0  0
   -1.1017    4.5761    0.0000 C   0  0  0  0  0  0  0  0  0  0  0  0
   -1.1017    5.4011    0.0000 N   0  0  0  0  0  0  0  0  0  0  0  0
   -1.1017    2.1011    0.0000 C   0  0  1  0  0  0  0  0  0  0  0  0
   -1.1017    2.9261    0.0000 N   0  0  0  0  0  0  0  0  0  0  0  0
   -1.8162    1.6886    0.0000 C   0  0  0  0  0  0  0  0  0  0  0  0
   -1.8162    0.8636    0.0000 C   0  0  1  0  0  0  0  0  0  0  0  0
   -2.5307    0.4511    0.0000 N   0  0  0  0  0  0  0  0  0  0  0  0
   -1.1017    0.4511    0.0000 C   0  0  2  0  0  0  0  0  0  0  0  0
   -1.1017   -0.3739    0.0000 O   0  0  0  0  0  0  0  0  0  0  0  0
    4.9052   -0.8250    0.0000 O   0  0  0  0  0  0  0  0  0  0  0  0
    4.9052    0.0000    0.0000 S   0  0  0  0  0  0  0  0  0  0  0  0
    4.9052    0.8250    0.0000 O   0  0  0  0  0  0  0  0  0  0  0  0
    5.7302   -0.0000    0.0000 O   0  0  0  0  0  0  0  0  0  0  0  0
    4.0802    0.0000    0.0000 O   0  0  0  0  0  0  0  0  0  0  0  0
  1  2  1  6  0  0  0
  3  2  1  1  0  0  0
  3  4  1  0  0  0  0
  4  5  1  0  0  0  0
  5  6  1  0  0  0  0
  6  7  1  6  0  0  0
  7  8  1  0  0  0  0
  8  9  1  0  0  0  0
  9 10  1  0  0  0  0
 10 11  1  0  0  0  0
 11 12  1  6  0  0  0
 11 13  1  0  0  0  0
 13 14  1  1  0  0  0
 13 15  1  0  0  0  0
  8 15  1  0  0  0  0
 15 16  1  6  0  0  0
 10 17  1  6  0  0  0
 17 18  1  0  0  0  0
  6 19  1  0  0  0  0
  3 19  1  0  0  0  0
 19 20  1  6  0  0  0
  5 21  1  1  0  0  0
 21 22  1  0  0  0  0
  1 23  1  0  0  0  0
 23 24  1  1  0  0  0
 25 24  1  1  0  0  0
 25 26  1  0  0  0  0
 26 27  1  0  0  0  0
 27 28  1  0  0  0  0
 28 29  1  1  0  0  0
 28 30  1  0  0  0  0
 30 31  1  6  0  0  0
 30 32  1  0  0  0  0
 25 32  1  0  0  0  0
 32 33  1  1  0  0  0
 27 34  1  6  0  0  0
 34 35  1  0  0  0  0
 23 36  1  0  0  0  0
 36 37  1  6  0  0  0
 36 38  1  0  0  0  0
 38 39  1  0  0  0  0
 39 40  1  6  0  0  0
 39 41  1  0  0  0  0
  1 41  1  0  0  0  0
 41 42  1  1  0  0  0
 43 44  2  0  0  0  0
 44 45  2  0  0  0  0
 44 46  1  0  0  0  0
 44 47  1  0  0  0  0
M  END
>  <Name>
Neomycin sulfate

>  <CAS>
1405-10-3

>  <Formula>
C23H46N6O13.3H2SO4

>  <MolWt>
908.87 

>  <Bioactivity>
Neomycin sulfate belongs to a class of antibiotics known as the aminoglycosides.

>  <Pathways>
Microbiology & Virology

>  <Target>
Antibiotic

>  <Receptor>
30S ribosomal protein

>  <Reference>
1. Gill AE, Amyes SG. J Chemother. 2004 Aug;16(4):347-9. Pubmed


$$$$
73-32-5
  Mrv1561503291623562D          

  9  8  0  0  1  0            999 V2000
    1.9520    1.1270    0.0000 C   0  0  1  0  0  0  0  0  0  0  0  0
    1.2375    0.7145    0.0000 C   0  0  2  0  0  0  0  0  0  0  0  0
    0.5230    1.1270    0.0000 C   0  0  0  0  0  0  0  0  0  0  0  0
   -0.1914    0.7145    0.0000 C   0  0  0  0  0  0  0  0  0  0  0  0
    1.2375   -0.1105    0.0000 C   0  0  0  0  0  0  0  0  0  0  0  0
    2.6664    0.7145    0.0000 C   0  0  0  0  0  0  0  0  0  0  0  0
    3.3809    1.1270    0.0000 O   0  0  0  0  0  0  0  0  0  0  0  0
    2.6664   -0.1105    0.0000 O   0  0  0  0  0  0  0  0  0  0  0  0
    1.9520    1.9520    0.0000 N   0  0  0  0  0  0  0  0  0  0  0  0
  1  2  1  0  0  0  0
  2  3  1  0  0  0  0
  3  4  1  0  0  0  0
  2  5  1  1  0  0  0
  1  6  1  0  0  0  0
  6  7  1  0  0  0  0
  6  8  2  0  0  0  0
  1  9  1  6  0  0  0
M  END
>  <Name>
Isoleucin

>  <CAS>
73-32-5

>  <Formula>
C6H13NO2

>  <MolWt>
131.17 

>  <Bioactivity>
An essential branched-chain aliphatic amino acid found in many proteins. It is an isomer of LEUCINE. It is important in hemoglobin synthesis and regulation of blood sugar and energy levels. 

>  <Pathways>
Amino Acids & Building Blocks

>  <Target>
Amino Acids and Derivatives

>  <Receptor>
Amino Acids and Derivatives

>  <Reference>
1. Korman SH, et al. Clin Chem. 2005 Mar;51(3):610-7. 

$$$$
1098-97-1
  Mrv1561503291623562D          

 24 25  0  0  0  0            999 V2000
   -0.0000   -1.6500    0.0000 C   0  0  0  0  0  0  0  0  0  0  0  0
   -0.0000   -2.4750    0.0000 C   0  0  0  0  0  0  0  0  0  0  0  0
   -0.7145   -2.8875    0.0000 C   0  0  0  0  0  0  0  0  0  0  0  0
   -1.4289   -2.4750    0.0000 C   0  0  0  0  0  0  0  0  0  0  0  0
   -1.4289   -1.6500    0.0000 C   0  0  0  0  0  0  0  0  0  0  0  0
   -0.7145   -1.2375    0.0000 N   0  0  0  0  0  0  0  0  0  0  0  0
   -2.1434   -1.2375    0.0000 C   0  0  0  0  0  0  0  0  0  0  0  0
   -2.1434   -2.8875    0.0000 O   0  0  0  0  0  0  0  0  0  0  0  0
   -0.7145   -3.7125    0.0000 C   0  0  0  0  0  0  0  0  0  0  0  0
   -1.4289   -4.1250    0.0000 O   0  0  0  0  0  0  0  0  0  0  0  0
    0.7145   -2.8875    0.0000 C   0  0  0  0  0  0  0  0  0  0  0  0
    1.4289   -2.4750    0.0000 S   0  0  0  0  0  0  0  0  0  0  0  0
    2.1434   -2.8875    0.0000 S   0  0  0  0  0  0  0  0  0  0  0  0
    2.8579   -2.4750    0.0000 C   0  0  0  0  0  0  0  0  0  0  0  0
    3.5724   -2.8875    0.0000 C   0  0  0  0  0  0  0  0  0  0  0  0
    4.2868   -2.4750    0.0000 C   0  0  0  0  0  0  0  0  0  0  0  0
    5.0013   -2.8875    0.0000 N   0  0  0  0  0  0  0  0  0  0  0  0
    5.0013   -3.7125    0.0000 C   0  0  0  0  0  0  0  0  0  0  0  0
    4.2868   -4.1250    0.0000 C   0  0  0  0  0  0  0  0  0  0  0  0
    3.5724   -3.7125    0.0000 C   0  0  0  0  0  0  0  0  0  0  0  0
    2.8579   -4.1250    0.0000 C   0  0  0  0  0  0  0  0  0  0  0  0
    2.1434   -3.7125    0.0000 O   0  0  0  0  0  0  0  0  0  0  0  0
    4.2868   -4.9500    0.0000 O   0  0  0  0  0  0  0  0  0  0  0  0
    5.7158   -4.1250    0.0000 C   0  0  0  0  0  0  0  0  0  0  0  0
  1  2  2  0  0  0  0
  2  3  1  0  0  0  0
  3  4  2  0  0  0  0
  4  5  1  0  0  0  0
  5  6  2  0  0  0  0
  1  6  1  0  0  0  0
  5  7  1  0  0  0  0
  4  8  1  0  0  0  0
  3  9  1  0  0  0  0
  9 10  1  0  0  0  0
  2 11  1  0  0  0  0
 11 12  1  0  0  0  0
 12 13  1  0  0  0  0
 13 14  1  0  0  0  0
 14 15  1  0  0  0  0
 15 16  2  0  0  0  0
 16 17  1  0  0  0  0
 17 18  2  0  0  0  0
 18 19  1  0  0  0  0
 19 20  2  0  0  0  0
 15 20  1  0  0  0  0
 20 21  1  0  0  0  0
 21 22  1  0  0  0  0
 19 23  1  0  0  0  0
 18 24  1  0  0  0  0
M  END
>  <Name>
Pyrithioxin

>  <CAS>
1098-97-1

>  <Formula>
C16H20N2O4S2

>  <MolWt>
368.47 

>  <Bioactivity>
A neurotropic agent which reduces permeability of blood-brain barrier to phosphate. It has no vitamin B6 activity. 

>  <Pathways>
Vitamin

>  <Target>
VB

>  <Receptor>
VB6

>  <Reference>
1. Hindmarch I, et al. Neuropsychobiology. 1990-1991;24(3):159-64.

$$$$
T0881
  Mrv1561503291623562D          

  9  8  0  0  0  0            999 V2000
    2.4750    1.4289    0.0000 C   0  0  0  0  0  0  0  0  0  0  0  0
    1.7605    1.8414    0.0000 C   0  0  0  0  0  0  0  0  0  0  0  0
    1.0461    1.4289    0.0000 O   0  0  0  0  0  0  0  0  0  0  0  0
    1.7605    2.6664    0.0000 O   0  0  0  0  0  0  0  0  0  0  0  0
    3.1895    1.8414    0.0000 C   0  0  0  0  0  0  0  0  0  0  0  0
    3.9039    1.4289    0.0000 C   0  0  0  0  0  0  0  0  0  0  0  0
    4.6184    1.8414    0.0000 C   0  0  0  0  0  0  0  0  0  0  0  0
    5.3329    1.4289    0.0000 C   0  0  0  0  0  0  0  0  0  0  0  0
    6.0474    1.8414    0.0000 N   0  0  0  0  0  0  0  0  0  0  0  0
  1  2  1  0  0  0  0
  2  3  1  0  0  0  0
  2  4  2  0  0  0  0
  1  5  1  0  0  0  0
  5  6  1  0  0  0  0
  6  7  1  0  0  0  0
  7  8  1  0  0  0  0
  8  9  1  0  0  0  0
M  END
>  <Name>
6-Aminocaproic acid

>  <CAS>
60-32-2

>  <Formula>
C6H13NO2

>  <MolWt>
131.18 

>  <Bioactivity>
(6-)?-?Aminocaproic acid is a derivative and analogue of the amino acid lysine. Aminocaproic acid is an Antifibrinolytic Agent. The physiologic effect of aminocaproic acid is by means of Decreased Fibrinolysis.

>  <Pathways>
Angiogenesis

>  <Target>
Plasminogen inhibitor

>  <Receptor>
Plasminogen activator

>  <Reference>
1. Mochalkin I, et al. Biochemistry. 1999 Feb 16;38(7):1990-8.

$$$$
461-06-3
  Mrv1561503291623562D          

 11 10  0  0  0  0            999 V2000
    1.2375    0.7145    0.0000 C   0  0  0  0  0  0  0  0  0  0  0  0
    0.8250    1.4289    0.0000 N   0  3  0  0  0  0  0  0  0  0  0  0
    0.4125    2.1434    0.0000 C   0  0  0  0  0  0  0  0  0  0  0  0
    0.1105    1.0164    0.0000 C   0  0  0  0  0  0  0  0  0  0  0  0
    1.5395    1.8414    0.0000 C   0  0  0  0  0  0  0  0  0  0  0  0
    0.8250    0.0000    0.0000 C   0  0  0  0  0  0  0  0  0  0  0  0
    1.2375   -0.7145    0.0000 C   0  0  0  0  0  0  0  0  0  0  0  0
    0.8250   -1.4289    0.0000 C   0  0  0  0  0  0  0  0  0  0  0  0
    1.2375   -2.1434    0.0000 O   0  0  0  0  0  0  0  0  0  0  0  0
    0.0000   -1.4289    0.0000 O   0  5  0  0  0  0  0  0  0  0  0  0
    0.0000    0.0000    0.0000 O   0  0  0  0  0  0  0  0  0  0  0  0
  1  2  1  0  0  0  0
  2  3  1  0  0  0  0
  2  4  1  0  0  0  0
  2  5  1  0  0  0  0
  1  6  1  0  0  0  0
  6  7  1  0  0  0  0
  7  8  1  0  0  0  0
  8  9  2  0  0  0  0
  8 10  1  0  0  0  0
  6 11  1  0  0  0  0
M  CHG  2   2   1  10  -1
M  END
>  <Name>
DL-Carnitine

>  <CAS>
461-06-3

>  <Formula>
C7H16ClNO3

>  <MolWt>
161.20 

>  <Bioactivity>
Constituent of striated muscle and liver. It is used therapeutically to stimulate gastric and pancreatic secretions and in the treatment of hyperlipoproteinemias.


>  <Pathways>
Others

>  <Target>
Others

>  <Receptor>
O-acetyltransferase

>  <Reference>
1. Lopes G, et al. Braz J Med Biol Res. 2003 Sep;36(9):1255-62.

$$$$
92-84-2
  Mrv1561503291623562D          

 14 16  0  0  0  0            999 V2000
    3.5724    1.2375    0.0000 C   0  0  0  0  0  0  0  0  0  0  0  0
    4.2868    0.8250    0.0000 C   0  0  0  0  0  0  0  0  0  0  0  0
    4.2868   -0.0000    0.0000 C   0  0  0  0  0  0  0  0  0  0  0  0
    3.5724   -0.4125    0.0000 C   0  0  0  0  0  0  0  0  0  0  0  0
    2.8579   -0.0000    0.0000 C   0  0  0  0  0  0  0  0  0  0  0  0
    2.8579    0.8250    0.0000 C   0  0  0  0  0  0  0  0  0  0  0  0
    2.1434    1.2375    0.0000 N   0  0  0  0  0  0  0  0  0  0  0  0
    1.4289    0.8250    0.0000 C   0  0  0  0  0  0  0  0  0  0  0  0
    1.4289   -0.0000    0.0000 C   0  0  0  0  0  0  0  0  0  0  0  0
    2.1434   -0.4125    0.0000 S   0  0  0  0  0  0  0  0  0  0  0  0
    0.7145   -0.4125    0.0000 C   0  0  0  0  0  0  0  0  0  0  0  0
   -0.0000    0.0000    0.0000 C   0  0  0  0  0  0  0  0  0  0  0  0
    0.0000    0.8250    0.0000 C   0  0  0  0  0  0  0  0  0  0  0  0
    0.7145    1.2375    0.0000 C   0  0  0  0  0  0  0  0  0  0  0  0
  1  2  2  0  0  0  0
  2  3  1  0  0  0  0
  3  4  2  0  0  0  0
  4  5  1  0  0  0  0
  5  6  2  0  0  0  0
  1  6  1  0  0  0  0
  6  7  1  0  0  0  0
  7  8  1  0  0  0  0
  8  9  2  0  0  0  0
  9 10  1  0  0  0  0
  5 10  1  0  0  0  0
  9 11  1  0  0  0  0
 11 12  2  0  0  0  0
 12 13  1  0  0  0  0
 13 14  2  0  0  0  0
  8 14  1  0  0  0  0
M  END
>  <Name>
Phenothiazine

>  <CAS>
92-84-2

>  <Formula>
C12H9NS

>  <MolWt>
199.27 

>  <Bioactivity>
Phenothiazine is a dopamine-2 (D2) receptor antagonist therefore decreases the effect of dopamine in the brain.

>  <Pathways>
Neuroscience

>  <Target>
Dopamine Receptor antagonist

>  <Receptor>
Dopamine receptor

>  <Reference>
1. Pluta K, et al. Eur J Med Chem, 2011, 46(8), 3179-3189.

$$$$
60-18-4
  Mrv1561503291623562D          

 13 13  0  0  0  0            999 V2000
    1.4289    0.8250    0.0000 C   0  0  0  0  0  0  0  0  0  0  0  0
    1.4289    0.0000    0.0000 C   0  0  0  0  0  0  0  0  0  0  0  0
    0.7145   -0.4125    0.0000 C   0  0  0  0  0  0  0  0  0  0  0  0
   -0.0000    0.0000    0.0000 C   0  0  0  0  0  0  0  0  0  0  0  0
   -0.0000    0.8250    0.0000 C   0  0  0  0  0  0  0  0  0  0  0  0
    0.7145    1.2375    0.0000 C   0  0  0  0  0  0  0  0  0  0  0  0
    0.7145    2.0625    0.0000 C   0  0  0  0  0  0  0  0  0  0  0  0
    0.0000    2.4750    0.0000 C   0  0  0  0  0  0  0  0  0  0  0  0
    0.0000    3.3000    0.0000 C   0  0  0  0  0  0  0  0  0  0  0  0
   -0.7145    3.7125    0.0000 O   0  0  0  0  0  0  0  0  0  0  0  0
    0.7145    3.7125    0.0000 O   0  0  0  0  0  0  0  0  0  0  0  0
   -0.7145    2.0625    0.0000 N   0  0  0  0  0  0  0  0  0  0  0  0
    0.7145   -1.2375    0.0000 O   0  0  0  0  0  0  0  0  0  0  0  0
  1  2  2  0  0  0  0
  2  3  1  0  0  0  0
  3  4  2  0  0  0  0
  4  5  1  0  0  0  0
  5  6  2  0  0  0  0
  1  6  1  0  0  0  0
  6  7  1  0  0  0  0
  7  8  1  0  0  0  0
  8  9  1  0  0  0  0
  9 10  1  0  0  0  0
  9 11  2  0  0  0  0
  8 12  1  0  0  0  0
  3 13  1  0  0  0  0
M  END
>  <Name>
Tyrosine

>  <CAS>
60-18-4

>  <Formula>
C9H11NO3

>  <MolWt>
181.19 

>  <Bioactivity>
A non-essential amino acid. In animals it is synthesized from PHENYLALANINE. It is also the precursor of EPINEPHRINE; THYROID HORMONES; and melanin. 

>  <Pathways>
Amino Acids & Building Blocks

>  <Target>
Amino Acids and Derivatives

>  <Receptor>
Amino Acids and Derivatives

>  <Reference>
1. Dong S, et al. Blood. 2007 Jul 1;110(1):360-9. 

$$$$
97-53-0
  Mrv1561503291623562D          

 12 12  0  0  0  0            999 V2000
    1.4289    0.8250    0.0000 C   0  0  0  0  0  0  0  0  0  0  0  0
    1.4289    0.0000    0.0000 C   0  0  0  0  0  0  0  0  0  0  0  0
    0.7145   -0.4125    0.0000 C   0  0  0  0  0  0  0  0  0  0  0  0
   -0.0000    0.0000    0.0000 C   0  0  0  0  0  0  0  0  0  0  0  0
   -0.0000    0.8250    0.0000 C   0  0  0  0  0  0  0  0  0  0  0  0
    0.7145    1.2375    0.0000 C   0  0  0  0  0  0  0  0  0  0  0  0
    0.7145    2.0625    0.0000 C   0  0  0  0  0  0  0  0  0  0  0  0
    0.0000    2.4750    0.0000 C   0  0  0  0  0  0  0  0  0  0  0  0
    0.0000    3.3000    0.0000 C   0  0  0  0  0  0  0  0  0  0  0  0
    0.7145   -1.2375    0.0000 O   0  0  0  0  0  0  0  0  0  0  0  0
    2.1434   -0.4125    0.0000 O   0  0  0  0  0  0  0  0  0  0  0  0
    2.1434   -1.2375    0.0000 C   0  0  0  0  0  0  0  0  0  0  0  0
  1  2  2  0  0  0  0
  2  3  1  0  0  0  0
  3  4  2  0  0  0  0
  4  5  1  0  0  0  0
  5  6  2  0  0  0  0
  1  6  1  0  0  0  0
  6  7  1  0  0  0  0
  7  8  1  0  0  0  0
  8  9  2  0  0  0  0
  3 10  1  0  0  0  0
  2 11  1  0  0  0  0
 11 12  1  0  0  0  0
M  END
>  <Name>
Eugenol

>  <CAS>
97-53-0

>  <Formula>
C10H12O2

>  <MolWt>
164.20 

>  <Bioactivity>
Eugenol is a Standardized Chemical Allergen. The physiologic effect of eugenol is by means of Increased Histamine Release and Cell-mediated Immunity. The chemical classification of eugenol is Allergens. from FDA Pharm Classe

>  <Pathways>
Others

>  <Target>
Others

>  <Receptor>
Others

>  <Reference>
1. Jadhav BK, et al. Drug Dev Ind Pharm. 2004 Feb;30(2):195-203.

$$$$
2216-51-5
  Mrv1561503291623562D          

 11 11  0  0  1  0            999 V2000
    0.7145    1.2375    0.0000 C   0  0  1  0  0  0  0  0  0  0  0  0
    1.4289    0.8250    0.0000 C   0  0  1  0  0  0  0  0  0  0  0  0
    1.4289    0.0000    0.0000 C   0  0  0  0  0  0  0  0  0  0  0  0
    0.7145   -0.4125    0.0000 C   0  0  2  0  0  0  0  0  0  0  0  0
    0.7145   -1.2375    0.0000 C   0  0  0  0  0  0  0  0  0  0  0  0
    0.0000   -0.0000    0.0000 C   0  0  0  0  0  0  0  0  0  0  0  0
    0.0000    0.8250    0.0000 C   0  0  0  0  0  0  0  0  0  0  0  0
    2.1434    1.2375    0.0000 O   0  0  0  0  0  0  0  0  0  0  0  0
    0.7145    2.0625    0.0000 C   0  0  0  0  0  0  0  0  0  0  0  0
   -0.0000    2.4750    0.0000 C   0  0  0  0  0  0  0  0  0  0  0  0
    1.4289    2.4750    0.0000 C   0  0  0  0  0  0  0  0  0  0  0  0
  1  2  1  0  0  0  0
  2  3  1  0  0  0  0
  3  4  1  0  0  0  0
  4  5  1  6  0  0  0
  4  6  1  0  0  0  0
  6  7  1  0  0  0  0
  1  7  1  0  0  0  0
  2  8  1  6  0  0  0
  1  9  1  1  0  0  0
  9 10  1  0  0  0  0
  9 11  1  0  0  0  0
M  END
>  <Name>
Menthol

>  <CAS>
2216-51-5

>  <Formula>
C10H20O

>  <MolWt>
156.27 

>  <Bioactivity>
Menthol is a covalent organic compound made synthetically or obtained from peppermint or other mint oils. It is a waxy, crystalline substance, clear or white in color, which is solid at room temperature and melts slightly above. The main form of menthol occurring in nature is (-)-menthol, which is assigned the (1R,2S,5R) configuration. Menthol has local anesthetic and counterirritant qualities, and it is widely used to relieve minor throat irritation. .

>  <Pathways>
Neuroscience

>  <Target>
Opioid Receptor

>  <Receptor>
Transient receptor potential cation channel ;Kappa-type opioid receptor

>  <Reference>
1. Macpherson LJ, et al. Mol Cell Neurosci. 2006 Aug;32(4):335-43. 

$$$$
464-49-3
  Mrv1561503291623562D          

 11 12  0  0  1  0            999 V2000
    1.0813    1.0257    0.0000 C   0  0  2  0  0  0  0  0  0  0  0  0
    1.2875    0.2007    0.0000 C   0  0  0  0  0  0  0  0  0  0  0  0
    0.6232   -0.6570    0.0000 C   0  0  0  0  0  0  0  0  0  0  0  0
    0.6258    1.0460    0.0000 C   0  0  0  0  0  0  0  0  0  0  0  0
    1.0813   -0.6243    0.0000 C   0  0  2  0  0  0  0  0  0  0  0  0
    0.3668   -0.2118    0.0000 C   0  0  0  0  0  0  0  0  0  0  0  0
    0.3668    0.6132    0.0000 C   0  0  0  0  0  0  0  0  0  0  0  0
   -0.4755    0.8717    0.0000 O   0  0  0  0  0  0  0  0  0  0  0  0
    1.7957   -0.2118    0.0000 C   0  0  0  0  0  0  0  0  0  0  0  0
    1.7957    0.6132    0.0000 C   0  0  0  0  0  0  0  0  0  0  0  0
    1.3133    1.8804    0.0000 C   0  0  0  0  0  0  0  0  0  0  0  0
  1  2  1  0  0  0  0
  2  3  1  0  0  0  0
  2  4  1  0  0  0  0
  2  5  1  0  0  0  0
  5  6  1  0  0  0  0
  6  7  1  0  0  0  0
  1  7  1  0  0  0  0
  7  8  2  0  0  0  0
  5  9  1  1  0  0  0
  9 10  1  0  0  0  0
  1 10  1  0  0  0  0
  1 11  1  1  0  0  0
M  END
>  <Name>
D-Camphor

>  <CAS>
464-49-3

>  <Formula>
C10H16O

>  <MolWt>
152.24 

>  <Bioactivity>
Camphor is readily absorbed through the skin producing either a coolness or warmth sensation by activating the ion channel TRPV3,and acts as slight local anesthetic and antimicrobial substance. There are anti-itch gels and cooling gels with camphor as the active ingredient.

>  <Pathways>
Membrane Transporter/Ion Channel

>  <Target>
TRP/TRPV Channel inhibitor

>  <Receptor>
TRPV3

>  <Reference>
1. Imming P, et al. Nat Rev Drug Discov. 2006 Oct; 5(10):821-34. 


$$$$
52432-72-1
  Mrv1561503291623562D          

 37 36  0  0  0  0            999 V2000
   -2.0756    1.8964    0.0000 C   0  0  0  0  0  0  0  0  0  0  0  0
   -2.3456    1.1169    0.0000 C   0  0  0  0  0  0  0  0  0  0  0  0
   -1.8055    0.4932    0.0000 C   0  0  0  0  0  0  0  0  0  0  0  0
   -1.2654   -0.1304    0.0000 C   0  0  0  0  0  0  0  0  0  0  0  0
   -0.4553    0.0255    0.0000 O   0  0  0  0  0  0  0  0  0  0  0  0
    0.0848   -0.5981    0.0000 C   0  0  0  0  0  0  0  0  0  0  0  0
    0.8949   -0.4422    0.0000 C   0  0  0  0  0  0  0  0  0  0  0  0
    1.4350   -1.0659    0.0000 O   0  0  0  0  0  0  0  0  0  0  0  0
    2.2451   -0.9099    0.0000 C   0  0  0  0  0  0  0  0  0  0  0  0
    2.7852   -1.5336    0.0000 C   0  0  0  0  0  0  0  0  0  0  0  0
    3.5954   -1.3777    0.0000 N   0  3  0  0  0  0  0  0  0  0  0  0
    4.1355   -2.0013    0.0000 C   0  0  0  0  0  0  0  0  0  0  0  0
    4.9456   -1.8454    0.0000 C   0  0  0  0  0  0  0  0  0  0  0  0
    3.8654   -0.5981    0.0000 C   0  0  0  0  0  0  0  0  0  0  0  0
    4.6756   -0.4422    0.0000 C   0  0  0  0  0  0  0  0  0  0  0  0
   -1.5355   -0.9099    0.0000 O   0  0  0  0  0  0  0  0  0  0  0  0
   -1.1819    1.0333    0.0000 C   0  0  0  0  0  0  0  0  0  0  0  0
   -0.4023    0.7633    0.0000 C   0  0  0  0  0  0  0  0  0  0  0  0
   -2.4292   -0.0468    0.0000 C   0  0  0  0  0  0  0  0  0  0  0  0
   -2.2733   -0.8570    0.0000 C   0  0  0  0  0  0  0  0  0  0  0  0
   -3.1557    0.9610    0.0000 C   0  0  0  0  0  0  0  0  0  0  0  0
   -3.6958    1.5846    0.0000 C   0  0  0  0  0  0  0  0  0  0  0  0
   -3.4258    2.3642    0.0000 C   0  0  0  0  0  0  0  0  0  0  0  0
   -2.6157    2.5201    0.0000 C   0  0  0  0  0  0  0  0  0  0  0  0
    8.8938   -0.5898    0.0000 C   0  0  0  0  0  0  0  0  0  0  0  0
    8.4813    0.1246    0.0000 C   0  0  0  0  0  0  0  0  0  0  0  0
    7.7668   -0.2879    0.0000 O   0  0  0  0  0  0  0  0  0  0  0  0
    9.1958    0.5371    0.0000 C   0  0  0  0  0  0  0  0  0  0  0  0
    9.9103    0.1246    0.0000 O   0  0  0  0  0  0  0  0  0  0  0  0
    9.1958    1.3621    0.0000 O   0  0  0  0  0  0  0  0  0  0  0  0
    8.0688    0.8391    0.0000 C   0  0  0  0  0  0  0  0  0  0  0  0
    7.2438    0.8391    0.0000 C   0  0  0  0  0  0  0  0  0  0  0  0
    6.8313    0.1246    0.0000 O   0  0  0  0  0  0  0  0  0  0  0  0
    6.8313    1.5536    0.0000 O   0  0  0  0  0  0  0  0  0  0  0  0
    8.4813   -1.3043    0.0000 C   0  0  0  0  0  0  0  0  0  0  0  0
    8.8938   -2.0188    0.0000 O   0  5  0  0  0  0  0  0  0  0  0  0
    7.6563   -1.3043    0.0000 O   0  0  0  0  0  0  0  0  0  0  0  0
  1  2  2  0  0  0  0
  2  3  1  0  0  0  0
  3  4  1  0  0  0  0
  4  5  1  0  0  0  0
  5  6  1  0  0  0  0
  6  7  1  0  0  0  0
  7  8  1  0  0  0  0
  8  9  1  0  0  0  0
  9 10  1  0  0  0  0
 10 11  1  0  0  0  0
 11 12  1  0  0  0  0
 12 13  1  0  0  0  0
 11 14  1  0  0  0  0
 14 15  1  0  0  0  0
  4 16  2  0  0  0  0
  3 17  1  0  0  0  0
 17 18  1  0  0  0  0
  3 19  1  0  0  0  0
 19 20  1  0  0  0  0
  2 21  1  0  0  0  0
 21 22  2  0  0  0  0
 22 23  1  0  0  0  0
 23 24  2  0  0  0  0
  1 24  1  0  0  0  0
 25 26  1  0  0  0  0
 26 27  1  0  0  0  0
 26 28  1  0  0  0  0
 28 29  2  0  0  0  0
 28 30  1  0  0  0  0
 26 31  1  0  0  0  0
 31 32  1  0  0  0  0
 32 33  2  0  0  0  0
 32 34  1  0  0  0  0
 25 35  1  0  0  0  0
 35 36  1  0  0  0  0
 35 37  2  0  0  0  0
M  CHG  2  11   1  36  -1
M  END
>  <Name>
Oxeladin citrate

>  <CAS>
52432-72-1

>  <Formula>
C26H41NO10

>  <MolWt>
527.60 

>  <Bioactivity>
Oxeladin is a cough suppressant. It is a highly potent and effective drug used to treat all types of cough of various etiologies. It is not related to opium or its derivatives, so treatment with oxeladin is free of risk of dependence or addiction. Oxeladin has none of the side effects (such as hypnosis, respiratory depression, tolerance, constipation and analgesia) which are present when common antitussives, such as codeine and its derivatives, are used. It may be used at every age, as well as in patients with heart disease, since it has a high level of safety and a great selectivity to act on the bulbar centre of cough.

>  <Pathways>
Others

>  <Target>
Others

>  <Receptor>
Others

>  <Reference>
1. Knopp C, Korsatko W. Pharmazie. 1982 Jan;37(1):76-7. 

$$$$
146-56-5
  Mrv1561503291623562D          

 34 33  0  0  0  0            999 V2000
    0.4125    0.0000    0.0000 H   0  3  0  0  0  0  0  0  0  0  0  0
    3.5946    0.0000    0.0000 H   0  3  0  0  0  0  0  0  0  0  0  0
   -0.2620   -4.5375    0.0000 C   0  0  0  0  0  0  0  0  0  0  0  0
   -0.9764   -4.1250    0.0000 N   0  0  0  0  0  0  0  0  0  0  0  0
   -1.6909   -4.5375    0.0000 C   0  0  0  0  0  0  0  0  0  0  0  0
   -2.4054   -4.1250    0.0000 C   0  0  0  0  0  0  0  0  0  0  0  0
   -2.4054   -3.3000    0.0000 N   0  0  0  0  0  0  0  0  0  0  0  0
   -1.6909   -2.8875    0.0000 C   0  0  0  0  0  0  0  0  0  0  0  0
   -0.9764   -3.3000    0.0000 C   0  0  0  0  0  0  0  0  0  0  0  0
   -3.1199   -2.8875    0.0000 C   0  0  0  0  0  0  0  0  0  0  0  0
   -3.1199   -2.0625    0.0000 C   0  0  0  0  0  0  0  0  0  0  0  0
   -3.8343   -1.6500    0.0000 O   0  0  0  0  0  0  0  0  0  0  0  0
   -0.2620   -5.3625    0.0000 C   0  0  0  0  0  0  0  0  0  0  0  0
    0.4525   -5.7750    0.0000 C   0  0  0  0  0  0  0  0  0  0  0  0
    0.4525   -6.6000    0.0000 N   0  0  0  0  0  0  0  0  0  0  0  0
    1.1670   -7.0125    0.0000 C   0  0  0  0  0  0  0  0  0  0  0  0
    1.1670   -7.8375    0.0000 C   0  0  0  0  0  0  0  0  0  0  0  0
    0.4525   -8.2500    0.0000 S   0  0  0  0  0  0  0  0  0  0  0  0
   -0.2620   -7.8375    0.0000 C   0  0  0  0  0  0  0  0  0  0  0  0
   -0.9764   -8.2500    0.0000 C   0  0  0  0  0  0  0  0  0  0  0  0
   -1.6909   -7.8375    0.0000 C   0  0  0  0  0  0  0  0  0  0  0  0
   -1.6909   -7.0125    0.0000 C   0  0  0  0  0  0  0  0  0  0  0  0
   -0.9764   -6.6000    0.0000 C   0  0  0  0  0  0  0  0  0  0  0  0
   -0.2620   -7.0125    0.0000 C   0  0  0  0  0  0  0  0  0  0  0  0
    1.8814   -8.2500    0.0000 C   0  0  0  0  0  0  0  0  0  0  0  0
    2.5959   -7.8375    0.0000 C   0  0  0  0  0  0  0  0  0  0  0  0
    2.5959   -7.0125    0.0000 C   0  0  0  0  0  0  0  0  0  0  0  0
    1.8814   -6.6000    0.0000 C   0  0  0  0  0  0  0  0  0  0  0  0
    3.3104   -6.6000    0.0000 C   0  0  0  0  0  0  0  0  0  0  0  0
    4.0249   -6.1875    0.0000 F   0  0  0  0  0  0  0  0  0  0  0  0
    3.7229   -7.3145    0.0000 F   0  0  0  0  0  0  0  0  0  0  0  0
    2.8979   -5.8855    0.0000 F   0  0  0  0  0  0  0  0  0  0  0  0
   -0.4125    0.0000    0.0000 Cl  0  5  0  0  0  0  0  0  0  0  0  0
    2.7696    0.0000    0.0000 Cl  0  5  0  0  0  0  0  0  0  0  0  0
  3  4  1  0  0  0  0
  4  5  1  0  0  0  0
  5  6  1  0  0  0  0
  6  7  1  0  0  0  0
  7  8  1  0  0  0  0
  8  9  1  0  0  0  0
  4  9  1  0  0  0  0
  7 10  1  0  0  0  0
 10 11  1  0  0  0  0
 11 12  1  0  0  0  0
  3 13  1  0  0  0  0
 13 14  1  0  0  0  0
 14 15  1  0  0  0  0
 15 16  1  0  0  0  0
 16 17  2  0  0  0  0
 17 18  1  0  0  0  0
 18 19  1  0  0  0  0
 19 20  2  0  0  0  0
 20 21  1  0  0  0  0
 21 22  2  0  0  0  0
 22 23  1  0  0  0  0
 23 24  2  0  0  0  0
 15 24  1  0  0  0  0
 19 24  1  0  0  0  0
 17 25  1  0  0  0  0
 25 26  2  0  0  0  0
 26 27  1  0  0  0  0
 27 28  2  0  0  0  0
 16 28  1  0  0  0  0
 27 29  1  0  0  0  0
 29 30  1  0  0  0  0
 29 31  1  0  0  0  0
 29 32  1  0  0  0  0
M  CHG  4   1   1   2   1  33  -1  34  -1
M  END
>  <Name>
Fluphenazine HCl

>  <CAS>
146-56-5

>  <Formula>
C22H28Cl2F3N3OS

>  <MolWt>
510.44 

>  <Bioactivity>
A phenothiazine used in the treatment of PSYCHOSES. Its properties and uses are generally similar to those of CHLORPROMAZINE.  


>  <Pathways>
Neuroscience

>  <Target>
Dopamine Receptor antagonist

>  <Receptor>
Dopamine receptor

>  <Reference>
1. Qin ZH, Weiss B. Eur J Pharmacol. 1994 Sep 15;269(1):25-33. 

$$$$
26027-38-3
  Mrv1561503291623562D          

 19 19  0  0  0  0            999 V2000
   -3.5724    0.4125    0.0000 C   0  0  0  0  0  0  0  0  0  0  0  0
   -2.8579    0.0000    0.0000 C   0  0  0  0  0  0  0  0  0  0  0  0
   -2.8579   -0.8250    0.0000 C   0  0  0  0  0  0  0  0  0  0  0  0
   -3.5724   -1.2375    0.0000 C   0  0  0  0  0  0  0  0  0  0  0  0
   -4.2868   -0.8250    0.0000 C   0  0  0  0  0  0  0  0  0  0  0  0
   -4.2868    0.0000    0.0000 C   0  0  0  0  0  0  0  0  0  0  0  0
   -5.0013   -1.2375    0.0000 O   0  0  0  0  0  0  0  0  0  0  0  0
   -5.7158   -0.8250    0.0000 C   0  0  0  0  0  0  0  0  0  0  0  0
   -6.4302   -1.2375    0.0000 C   0  0  0  0  0  0  0  0  0  0  0  0
   -7.1447   -0.8250    0.0000 O   0  0  0  0  0  0  0  0  0  0  0  0
   -2.1434    0.4125    0.0000 C   0  0  0  0  0  0  0  0  0  0  0  0
   -1.4289    0.0000    0.0000 C   0  0  0  0  0  0  0  0  0  0  0  0
   -0.7145    0.4125    0.0000 C   0  0  0  0  0  0  0  0  0  0  0  0
    0.0000    0.0000    0.0000 C   0  0  0  0  0  0  0  0  0  0  0  0
    0.7145    0.4125    0.0000 C   0  0  0  0  0  0  0  0  0  0  0  0
    1.4289    0.0000    0.0000 C   0  0  0  0  0  0  0  0  0  0  0  0
    2.1434    0.4125    0.0000 C   0  0  0  0  0  0  0  0  0  0  0  0
    2.8579    0.0000    0.0000 C   0  0  0  0  0  0  0  0  0  0  0  0
    3.5724    0.4125    0.0000 C   0  0  0  0  0  0  0  0  0  0  0  0
  1  2  2  0  0  0  0
  2  3  1  0  0  0  0
  3  4  2  0  0  0  0
  4  5  1  0  0  0  0
  5  6  2  0  0  0  0
  1  6  1  0  0  0  0
  5  7  1  0  0  0  0
  7  8  1  0  0  0  0
  8  9  1  0  0  0  0
  9 10  1  0  0  0  0
  2 11  1  0  0  0  0
 11 12  1  0  0  0  0
 12 13  1  0  0  0  0
 13 14  1  0  0  0  0
 14 15  1  0  0  0  0
 15 16  1  0  0  0  0
 16 17  1  0  0  0  0
 17 18  1  0  0  0  0
 18 19  1  0  0  0  0
M  END
>  <Name>
Nonoxynol

>  <CAS>
26027-38-3

>  <Formula>
C28H50O8

>  <MolWt>
514.69 

>  <Bioactivity>
Nonoxynol-9 (N-9) is a typical surfactant used as a vaginal spermicide. Spermicides are locally acting non-hormonal contraceptives. When present in the vagina during intercourse, they immobilize/inactivate/damage and/or kill sperms without eliciting systemic effects. N-9 has been in use for more than 30 years as an over-the-counter (OTC) drug in creams, gels, foams and condom lubricants. It is the most commonly used spermicidal contraceptive in the UK and the USA. In several European countries, spermicides are no longer on the market. 

>  <Pathways>
Neuroscience

>  <Target>
COX inhibitor

>  <Receptor>
Prostaglandin G/H synthase

>  <Reference>
1. Zalenskaya IA, et al. Am J Reprod Immunol. 2011, 65(6):569-77.

$$$$
117-96-4
  Mrv1561503291623562D          

 20 20  0  0  0  0            999 V2000
    1.4289    3.3000    0.0000 C   0  0  0  0  0  0  0  0  0  0  0  0
    1.4289    2.4750    0.0000 C   0  0  0  0  0  0  0  0  0  0  0  0
    0.7145    2.0625    0.0000 N   0  0  0  0  0  0  0  0  0  0  0  0
    0.7145    1.2375    0.0000 C   0  0  0  0  0  0  0  0  0  0  0  0
    1.4289    0.8250    0.0000 C   0  0  0  0  0  0  0  0  0  0  0  0
    1.4289    0.0000    0.0000 C   0  0  0  0  0  0  0  0  0  0  0  0
    0.7145   -0.4125    0.0000 C   0  0  0  0  0  0  0  0  0  0  0  0
    0.7145   -1.2375    0.0000 I   0  0  0  0  0  0  0  0  0  0  0  0
    0.0000   -0.0000    0.0000 C   0  0  0  0  0  0  0  0  0  0  0  0
    0.0000    0.8250    0.0000 C   0  0  0  0  0  0  0  0  0  0  0  0
   -0.7145    1.2375    0.0000 I   0  0  0  0  0  0  0  0  0  0  0  0
   -0.7145   -0.4125    0.0000 N   0  0  0  0  0  0  0  0  0  0  0  0
   -1.4289    0.0000    0.0000 C   0  0  0  0  0  0  0  0  0  0  0  0
   -2.1434   -0.4125    0.0000 C   0  0  0  0  0  0  0  0  0  0  0  0
   -1.4289    0.8250    0.0000 O   0  0  0  0  0  0  0  0  0  0  0  0
    2.1434   -0.4125    0.0000 C   0  0  0  0  0  0  0  0  0  0  0  0
    2.1434   -1.2375    0.0000 O   0  0  0  0  0  0  0  0  0  0  0  0
    2.8579    0.0000    0.0000 O   0  0  0  0  0  0  0  0  0  0  0  0
    2.1434    1.2375    0.0000 I   0  0  0  0  0  0  0  0  0  0  0  0
    2.1434    2.0625    0.0000 O   0  0  0  0  0  0  0  0  0  0  0  0
  1  2  1  0  0  0  0
  2  3  1  0  0  0  0
  3  4  1  0  0  0  0
  4  5  2  0  0  0  0
  5  6  1  0  0  0  0
  6  7  2  0  0  0  0
  7  8  1  0  0  0  0
  7  9  1  0  0  0  0
  9 10  2  0  0  0  0
  4 10  1  0  0  0  0
 10 11  1  0  0  0  0
  9 12  1  0  0  0  0
 12 13  1  0  0  0  0
 13 14  1  0  0  0  0
 13 15  2  0  0  0  0
  6 16  1  0  0  0  0
 16 17  2  0  0  0  0
 16 18  1  0  0  0  0
  5 19  1  0  0  0  0
  2 20  2  0  0  0  0
M  END
>  <Name>
Diatrizoic Acid

>  <CAS>
117-96-4

>  <Formula>
C11H9I3N2O4

>  <MolWt>
613.92 

>  <Bioactivity>
A commonly used x-ray contrast medium. As diatrizoate meglumine and as Diatrizoate sodium, it is used for gastrointestinal studies, angiography, and urography.   

>  <Pathways>
Others

>  <Target>
Others

>  <Receptor>
Others

>  <Reference>
1. Rastogi T, et al. Sci Total Environ. 2014 Jun 1;482-483:378-88.

$$$$
7220-79-3
  Mrv1561503291623562D          

 24 22  0  0  0  0            999 V2000
    0.0000   -0.5362    0.0000 S   0  3  0  0  0  0  0  0  0  0  0  0
    0.7145   -0.1238    0.0000 C   0  0  0  0  0  0  0  0  0  0  0  0
    1.4289   -0.5362    0.0000 C   0  0  0  0  0  0  0  0  0  0  0  0
    2.1434   -0.1238    0.0000 C   0  0  0  0  0  0  0  0  0  0  0  0
    2.8579   -0.5362    0.0000 N   0  0  0  0  0  0  0  0  0  0  0  0
    3.5724   -0.1237    0.0000 C   0  0  0  0  0  0  0  0  0  0  0  0
    2.8579   -1.3612    0.0000 C   0  0  0  0  0  0  0  0  0  0  0  0
    2.1434    0.7012    0.0000 C   0  0  0  0  0  0  0  0  0  0  0  0
    1.4289    1.1137    0.0000 C   0  0  0  0  0  0  0  0  0  0  0  0
    0.7145    0.7012    0.0000 C   0  0  0  0  0  0  0  0  0  0  0  0
    0.0000    1.1137    0.0000 N   0  0  0  0  0  0  0  0  0  0  0  0
   -0.7145    0.7012    0.0000 C   0  0  0  0  0  0  0  0  0  0  0  0
   -0.7145   -0.1238    0.0000 C   0  0  0  0  0  0  0  0  0  0  0  0
   -1.4289   -0.5362    0.0000 C   0  0  0  0  0  0  0  0  0  0  0  0
   -2.1434   -0.1238    0.0000 C   0  0  0  0  0  0  0  0  0  0  0  0
   -2.8579   -0.5362    0.0000 N   0  0  0  0  0  0  0  0  0  0  0  0
   -2.8579   -1.3612    0.0000 C   0  0  0  0  0  0  0  0  0  0  0  0
   -3.5724   -0.1237    0.0000 C   0  0  0  0  0  0  0  0  0  0  0  0
   -2.1434    0.7012    0.0000 C   0  0  0  0  0  0  0  0  0  0  0  0
   -1.4289    1.1137    0.0000 C   0  0  0  0  0  0  0  0  0  0  0  0
    5.9295    0.0000    0.0000 Cl  0  5  0  0  0  0  0  0  0  0  0  0
    8.2866    0.0000    0.0000 O   0  0  0  0  0  0  0  0  0  0  0  0
    0.0000   -3.0112    0.0000 O   0  0  0  0  0  0  0  0  0  0  0  0
    2.3571   -3.0112    0.0000 O   0  0  0  0  0  0  0  0  0  0  0  0
  1  2  2  0  0  0  0
  2  3  1  0  0  0  0
  3  4  2  0  0  0  0
  4  5  1  0  0  0  0
  5  6  1  0  0  0  0
  5  7  1  0  0  0  0
  4  8  1  0  0  0  0
  8  9  2  0  0  0  0
  9 10  1  0  0  0  0
  2 10  1  0  0  0  0
 10 11  2  0  0  0  0
 11 12  1  0  0  0  0
 12 13  2  0  0  0  0
  1 13  1  0  0  0  0
 13 14  1  0  0  0  0
 14 15  2  0  0  0  0
 15 16  1  0  0  0  0
 16 17  1  0  0  0  0
 16 18  1  0  0  0  0
 15 19  1  0  0  0  0
 19 20  2  0  0  0  0
 12 20  1  0  0  0  0
M  CHG  2   1   1  21  -1
M  END
>  <Name>
Methylene Blue trihydrate

>  <CAS>
7220-79-3

>  <Formula>
C16H24ClN3O3S

>  <MolWt>
373.90 

>  <Bioactivity>
A compound consisting of dark green crystals or crystalline powder, having a bronze-like luster. Solutions in water or alcohol have a deep blue color. Methylene blue is used as a bacteriologic stain and as an indicator. It inhibits GUANYLATE CYCLASE, and has been used to treat cyanide poisoning and to lower levels of METHEMOGLOBIN.

>  <Pathways>
Others

>  <Target>
Others

>  <Receptor>
others

>  <Reference>
1. Rager T, et al. Phys Chem Chem Phys. 2012 Jun 14;14(22):8074-82. 

$$$$
59-47-2
  Mrv1561503291623562D          

 13 13  0  0  0  0            999 V2000
    0.7145   -2.0625    0.0000 C   0  0  0  0  0  0  0  0  0  0  0  0
   -0.0000   -2.4750    0.0000 C   0  0  0  0  0  0  0  0  0  0  0  0
   -0.7145   -2.0625    0.0000 C   0  0  0  0  0  0  0  0  0  0  0  0
   -0.7145   -1.2375    0.0000 C   0  0  0  0  0  0  0  0  0  0  0  0
   -0.0000   -0.8250    0.0000 C   0  0  0  0  0  0  0  0  0  0  0  0
    0.7145   -1.2375    0.0000 C   0  0  0  0  0  0  0  0  0  0  0  0
    1.4289   -0.8250    0.0000 O   0  0  0  0  0  0  0  0  0  0  0  0
    2.1434   -1.2375    0.0000 C   0  0  0  0  0  0  0  0  0  0  0  0
    2.8579   -0.8250    0.0000 C   0  0  0  0  0  0  0  0  0  0  0  0
    3.5724   -1.2375    0.0000 C   0  0  0  0  0  0  0  0  0  0  0  0
    4.2868   -0.8250    0.0000 O   0  0  0  0  0  0  0  0  0  0  0  0
    2.8579   -0.0000    0.0000 O   0  0  0  0  0  0  0  0  0  0  0  0
   -0.0000   -0.0000    0.0000 C   0  0  0  0  0  0  0  0  0  0  0  0
  1  2  2  0  0  0  0
  2  3  1  0  0  0  0
  3  4  2  0  0  0  0
  4  5  1  0  0  0  0
  5  6  2  0  0  0  0
  1  6  1  0  0  0  0
  6  7  1  0  0  0  0
  7  8  1  0  0  0  0
  8  9  1  0  0  0  0
  9 10  1  0  0  0  0
 10 11  1  0  0  0  0
  9 12  1  0  0  0  0
  5 13  1  0  0  0  0
M  END
>  <Name>
Mephenesin

>  <CAS>
59-47-2

>  <Formula>
C10H14O3

>  <MolWt>
182.22 

>  <Bioactivity>
Mephenesin is a centrally acting muscle relaxant. It can be used as an antidote for strychnine poisoning. Mephenesin however presents with the major drawbacks of having a short duration of action and a much greater effect on the spinal cord than the brain, resulting in pronounced respiratory depression at clinical doses and therefore a very low therapeutic index. It is especially dangerous and potentially fatal in combination with alcohol and other depressants. 

>  <Pathways>
Others

>  <Target>
Others

>  <Receptor>
Others

>  <Reference>
1. Prescrire Int. 2013 May;22(138):127-8.

$$$$
T0938
  Mrv1561503291623562D          

 14 16  0  0  0  0            999 V2000
    2.0701    1.1104    0.0000 C   0  0  0  0  0  0  0  0  0  0  0  0
    1.3556    0.6979    0.0000 C   0  0  0  0  0  0  0  0  0  0  0  0
    0.6411    1.1104    0.0000 C   0  0  0  0  0  0  0  0  0  0  0  0
    0.6411    1.9354    0.0000 C   0  0  0  0  0  0  0  0  0  0  0  0
   -0.1435    2.1904    0.0000 N   0  0  0  0  0  0  0  0  0  0  0  0
   -0.6284    1.5229    0.0000 C   0  0  0  0  0  0  0  0  0  0  0  0
   -0.1435    0.8555    0.0000 N   0  0  0  0  0  0  0  0  0  0  0  0
   -1.4534    1.5229    0.0000 C   0  0  0  0  0  0  0  0  0  0  0  0
   -1.9384    0.8555    0.0000 C   0  0  0  0  0  0  0  0  0  0  0  0
   -2.7230    1.1104    0.0000 S   0  0  0  0  0  0  0  0  0  0  0  0
   -2.7230    1.9354    0.0000 C   0  0  0  0  0  0  0  0  0  0  0  0
   -1.9384    2.1904    0.0000 N   0  0  0  0  0  0  0  0  0  0  0  0
    1.3556    2.3479    0.0000 C   0  0  0  0  0  0  0  0  0  0  0  0
    2.0701    1.9354    0.0000 C   0  0  0  0  0  0  0  0  0  0  0  0
  1  2  2  0  0  0  0
  2  3  1  0  0  0  0
  3  4  2  0  0  0  0
  4  5  1  0  0  0  0
  5  6  1  0  0  0  0
  6  7  2  0  0  0  0
  3  7  1  0  0  0  0
  6  8  1  0  0  0  0
  8  9  2  0  0  0  0
  9 10  1  0  0  0  0
 10 11  1  0  0  0  0
 11 12  2  0  0  0  0
  8 12  1  0  0  0  0
  4 13  1  0  0  0  0
 13 14  2  0  0  0  0
  1 14  1  0  0  0  0
M  END
>  <Name>
Thiabendazole

>  <CAS>
148-79-8

>  <Formula>
C10H7N3S

>  <MolWt>
201.25 

>  <Bioactivity>
Thiabendazole is an Antihelminthic. Hiabendazole is a benzimidazole compound that acts as a fungicide and is reported to have aneugenic effects. 

>  <Pathways>
Cell Cycle/Checkpoint

>  <Target>
Microtubule Associated inhibitor

>  <Receptor>
?-Tubulin

>  <Reference>
1. Cha, HJ, et al. PLoS Biology, 2012, Aug, 10 (8).

$$$$
138-86-3
  Mrv1561503291623562D          

 10 10  0  0  0  0            999 V2000
   -0.0000    2.4750    0.0000 C   0  0  0  0  0  0  0  0  0  0  0  0
    0.7145    2.0625    0.0000 C   0  0  0  0  0  0  0  0  0  0  0  0
    0.7145    1.2375    0.0000 C   0  0  0  0  0  0  0  0  0  0  0  0
    1.4289    0.8250    0.0000 C   0  0  0  0  0  0  0  0  0  0  0  0
    1.4289    0.0000    0.0000 C   0  0  0  0  0  0  0  0  0  0  0  0
    0.7145   -0.4125    0.0000 C   0  0  0  0  0  0  0  0  0  0  0  0
    0.0000   -0.0000    0.0000 C   0  0  0  0  0  0  0  0  0  0  0  0
    0.0000    0.8250    0.0000 C   0  0  0  0  0  0  0  0  0  0  0  0
    0.7145   -1.2375    0.0000 C   0  0  0  0  0  0  0  0  0  0  0  0
    1.4289    2.4750    0.0000 C   0  0  0  0  0  0  0  0  0  0  0  0
  1  2  1  0  0  0  0
  2  3  1  0  0  0  0
  3  4  1  0  0  0  0
  4  5  1  0  0  0  0
  5  6  2  0  0  0  0
  6  7  1  0  0  0  0
  7  8  1  0  0  0  0
  3  8  1  0  0  0  0
  6  9  1  0  0  0  0
  2 10  2  0  0  0  0
M  END
>  <Name>
Cinene

>  <CAS>
138-86-3

>  <Formula>
C10H16

>  <MolWt>
136.24 

>  <Bioactivity>
Limonene is a colourless liquid hydrocarbon classified as a cyclic terpene. The more common d-isomer possesses a strong smell of oranges. It is used in chemical synthesis as a precursor to carvone and as a renewables-based solvent in cleaning products.

>  <Pathways>
Others

>  <Target>
Others

>  <Receptor>
Others

>  <Reference>
1. Chubukov V, et al. Appl Environ Microbiol. 2015 May 1. pii: AEM.01102-15.

$$$$
T1298
  Mrv1561503291623562D          

 16 16  0  0  0  0            999 V2000
    1.4289   -0.0000    0.0000 C   0  0  0  0  0  0  0  0  0  0  0  0
    0.7145   -0.4125    0.0000 C   0  0  0  0  0  0  0  0  0  0  0  0
    0.7145   -1.2375    0.0000 O   0  0  0  0  0  0  0  0  0  0  0  0
    1.4289   -1.6500    0.0000 C   0  0  0  0  0  0  0  0  0  0  0  0
    2.1434   -2.0625    0.0000 C   0  0  0  0  0  0  0  0  0  0  0  0
    2.1434   -2.8875    0.0000 O   0  0  0  0  0  0  0  0  0  0  0  0
    2.8579   -3.3000    0.0000 C   0  0  0  0  0  0  0  0  0  0  0  0
    2.8579   -4.1250    0.0000 C   0  0  0  0  0  0  0  0  0  0  0  0
    2.8579   -1.6500    0.0000 O   0  0  0  0  0  0  0  0  0  0  0  0
    1.8414   -0.9355    0.0000 C   0  0  0  0  0  0  0  0  0  0  0  0
    1.0164   -2.3645    0.0000 C   0  0  0  0  0  0  0  0  0  0  0  0
   -0.0000   -0.0000    0.0000 C   0  0  0  0  0  0  0  0  0  0  0  0
   -0.0000    0.8250    0.0000 C   0  0  0  0  0  0  0  0  0  0  0  0
    0.7145    1.2375    0.0000 C   0  0  0  0  0  0  0  0  0  0  0  0
    1.4289    0.8250    0.0000 C   0  0  0  0  0  0  0  0  0  0  0  0
    0.7145    2.0625    0.0000 Cl  0  0  0  0  0  0  0  0  0  0  0  0
  1  2  2  0  0  0  0
  2  3  1  0  0  0  0
  3  4  1  0  0  0  0
  4  5  1  0  0  0  0
  5  6  1  0  0  0  0
  6  7  1  0  0  0  0
  7  8  1  0  0  0  0
  5  9  2  0  0  0  0
  4 10  1  0  0  0  0
  4 11  1  0  0  0  0
  2 12  1  0  0  0  0
 12 13  2  0  0  0  0
 13 14  1  0  0  0  0
 14 15  2  0  0  0  0
  1 15  1  0  0  0  0
 14 16  1  0  0  0  0
M  END
>  <Name>
Clofibrate

>  <CAS>
637-07-0

>  <Formula>
C12H15ClO3

>  <MolWt>
242.70 

>  <Bioactivity>
A fibric acid derivative used in the treatment of HYPERLIPOPROTEINEMIA TYPE III and severe HYPERTRIGLYCERIDEMIA. (From Martindale, The Extra Pharmacopoeia, 30th ed, p986)  

>  <Pathways>
Metabolism

>  <Target>
PPAR agonist

>  <Receptor>
PPAR?

>  <Reference>
1. Casas F, et al. FEBS Lett. 2000, 478(1-2):4-8. 

$$$$
T0492
  Mrv1561503291623562D          

 10  9  0  0  0  0            999 V2000
    2.4750    1.4289    0.0000 C   0  0  0  0  0  0  0  0  0  0  0  0
    2.0625    0.7145    0.0000 O   0  0  0  0  0  0  0  0  0  0  0  0
    1.2375    0.7145    0.0000 C   0  0  0  0  0  0  0  0  0  0  0  0
    0.8250    0.0000    0.0000 C   0  0  0  0  0  0  0  0  0  0  0  0
    0.0000    0.0000    0.0000 C   0  0  0  0  0  0  0  0  0  0  0  0
   -0.4125   -0.7145    0.0000 C   0  0  0  0  0  0  0  0  0  0  0  0
   -1.2375   -0.7145    0.0000 O   0  0  0  0  0  0  0  0  0  0  0  0
   -1.6500   -1.4289    0.0000 C   0  0  0  0  0  0  0  0  0  0  0  0
    0.0000   -1.4289    0.0000 O   0  0  0  0  0  0  0  0  0  0  0  0
    0.8250    1.4289    0.0000 O   0  0  0  0  0  0  0  0  0  0  0  0
  1  2  1  0  0  0  0
  2  3  1  0  0  0  0
  3  4  1  0  0  0  0
  4  5  2  0  0  0  0
  5  6  1  0  0  0  0
  6  7  1  0  0  0  0
  7  8  1  0  0  0  0
  6  9  2  0  0  0  0
  3 10  2  0  0  0  0
M  END
>  <Name>
Dimethyl fumarate

>  <CAS>
624-49-7

>  <Formula>
C6H8O4

>  <MolWt>
144.13 

>  <Bioactivity>
Dimethyl fumarate is an anti-inflammatory. It is indicated for multiple sclerosis patients with relapsing forms and is also being investigated for the treatment of psoriasis. The mechanism of action of dimethyl fumarate in multiple sclerosis is not well understood. It is thought to involve dimethyl fumarate degradation to its active metabolite monomethyl fumarate (MMF) then MMF up-regulates the Nuclear factor (erythroid-derived 2)-like 2 (Nrf2) pathway that is activated in response to oxidative stress. Dimethyl fumarate is marketed under the brand name Tecfidera.  

>  <Pathways>
Immunology/Inflammation

>  <Target>
NF-?B inhibitor

>  <Receptor>
KEAP1-Nrf2

>  <Reference>
1. Oh CJ, et al. PLoS One. 2012;7(10):e45870. 

$$$$
479-18-5
  Mrv1561503291623562D          

 18 19  0  0  0  0            999 V2000
   -0.6284   -0.6979    0.0000 C   0  0  0  0  0  0  0  0  0  0  0  0
   -0.1435   -1.3654    0.0000 N   0  0  0  0  0  0  0  0  0  0  0  0
    0.6411   -1.1104    0.0000 C   0  0  0  0  0  0  0  0  0  0  0  0
    0.6411   -0.2854    0.0000 C   0  0  0  0  0  0  0  0  0  0  0  0
   -0.1435   -0.0305    0.0000 N   0  0  0  0  0  0  0  0  0  0  0  0
   -0.3984    0.7541    0.0000 C   0  0  0  0  0  0  0  0  0  0  0  0
   -1.2054    0.9256    0.0000 C   0  0  0  0  0  0  0  0  0  0  0  0
   -1.4604    1.7103    0.0000 C   0  0  0  0  0  0  0  0  0  0  0  0
   -2.2673    1.8818    0.0000 O   0  0  0  0  0  0  0  0  0  0  0  0
   -1.7575    0.3126    0.0000 O   0  0  0  0  0  0  0  0  0  0  0  0
    1.3556    0.1271    0.0000 C   0  0  0  0  0  0  0  0  0  0  0  0
    2.0701   -0.2854    0.0000 N   0  0  0  0  0  0  0  0  0  0  0  0
    2.7845    0.1271    0.0000 C   0  0  0  0  0  0  0  0  0  0  0  0
    2.0701   -1.1104    0.0000 C   0  0  0  0  0  0  0  0  0  0  0  0
    1.3556   -1.5229    0.0000 N   0  0  0  0  0  0  0  0  0  0  0  0
    1.3556   -2.3479    0.0000 C   0  0  0  0  0  0  0  0  0  0  0  0
    2.7845   -1.5229    0.0000 O   0  0  0  0  0  0  0  0  0  0  0  0
    1.3556    0.9521    0.0000 O   0  0  0  0  0  0  0  0  0  0  0  0
  1  2  2  0  0  0  0
  2  3  1  0  0  0  0
  3  4  2  0  0  0  0
  4  5  1  0  0  0  0
  1  5  1  0  0  0  0
  5  6  1  0  0  0  0
  6  7  1  0  0  0  0
  7  8  1  0  0  0  0
  8  9  1  0  0  0  0
  7 10  1  0  0  0  0
  4 11  1  0  0  0  0
 11 12  1  0  0  0  0
 12 13  1  0  0  0  0
 12 14  1  0  0  0  0
 14 15  1  0  0  0  0
  3 15  1  0  0  0  0
 15 16  1  0  0  0  0
 14 17  2  0  0  0  0
 11 18  2  0  0  0  0
M  END
>  <Name>
Diprophylline

>  <CAS>
479-18-5

>  <Formula>
C10H14N4O4

>  <MolWt>
254.25 

>  <Bioactivity>
Dyphylline is a xanthine derivative with bronchodilator and vasodilator effects.

>  <Pathways>
Metabolism

>  <Target>
PDE inhibitor

>  <Receptor>
PDE

>  <Reference>
1. Schwabe U, et al. Naunyn Schmiedebergs Arch Pharmacol. 1985 Sep;330(3):212-21.

$$$$
T0061
  Mrv1561503291623562D          

 14 14  0  0  0  0            999 V2000
    1.4289   -0.0000    0.0000 C   0  0  0  0  0  0  0  0  0  0  0  0
    0.7145   -0.4125    0.0000 C   0  0  0  0  0  0  0  0  0  0  0  0
    0.7145   -1.2375    0.0000 O   0  0  0  0  0  0  0  0  0  0  0  0
    1.4289   -1.6500    0.0000 C   0  0  0  0  0  0  0  0  0  0  0  0
    2.1434   -2.0625    0.0000 C   0  0  0  0  0  0  0  0  0  0  0  0
    2.1434   -2.8875    0.0000 O   0  0  0  0  0  0  0  0  0  0  0  0
    2.8579   -1.6500    0.0000 O   0  0  0  0  0  0  0  0  0  0  0  0
    1.8414   -0.9355    0.0000 C   0  0  0  0  0  0  0  0  0  0  0  0
    1.0164   -2.3645    0.0000 C   0  0  0  0  0  0  0  0  0  0  0  0
   -0.0000   -0.0000    0.0000 C   0  0  0  0  0  0  0  0  0  0  0  0
   -0.0000    0.8250    0.0000 C   0  0  0  0  0  0  0  0  0  0  0  0
    0.7145    1.2375    0.0000 C   0  0  0  0  0  0  0  0  0  0  0  0
    1.4289    0.8250    0.0000 C   0  0  0  0  0  0  0  0  0  0  0  0
    0.7145    2.0625    0.0000 Cl  0  0  0  0  0  0  0  0  0  0  0  0
  1  2  2  0  0  0  0
  2  3  1  0  0  0  0
  3  4  1  0  0  0  0
  4  5  1  0  0  0  0
  5  6  1  0  0  0  0
  5  7  2  0  0  0  0
  4  8  1  0  0  0  0
  4  9  1  0  0  0  0
  2 10  1  0  0  0  0
 10 11  2  0  0  0  0
 11 12  1  0  0  0  0
 12 13  2  0  0  0  0
  1 13  1  0  0  0  0
 12 14  1  0  0  0  0
M  END
>  <Name>
Clofibric acid

>  <CAS>
882-09-7

>  <Formula>
C10H11ClO3

>  <MolWt>
214.65 

>  <Bioactivity>
Clofibric acid is a PPAR? agonist and hypolipidemic agent.

>  <Pathways>
Metabolism

>  <Target>
PPAR agonist

>  <Receptor>
PPAR

>  <Reference>
1. Richert L, et al. Toxicol Appl Pharmacol, 2003, 191(2), 130-146.

$$$$
70-70-2
  Mrv1561503291623562D          

 11 11  0  0  0  0            999 V2000
    1.4289   -0.0000    0.0000 C   0  0  0  0  0  0  0  0  0  0  0  0
    0.7145   -0.4125    0.0000 C   0  0  0  0  0  0  0  0  0  0  0  0
   -0.0000   -0.0000    0.0000 C   0  0  0  0  0  0  0  0  0  0  0  0
   -0.0000    0.8250    0.0000 C   0  0  0  0  0  0  0  0  0  0  0  0
    0.7145    1.2375    0.0000 C   0  0  0  0  0  0  0  0  0  0  0  0
    1.4289    0.8250    0.0000 C   0  0  0  0  0  0  0  0  0  0  0  0
    0.7145    2.0625    0.0000 O   0  0  0  0  0  0  0  0  0  0  0  0
    0.7145   -1.2375    0.0000 C   0  0  0  0  0  0  0  0  0  0  0  0
   -0.0000   -1.6500    0.0000 C   0  0  0  0  0  0  0  0  0  0  0  0
   -0.0000   -2.4750    0.0000 C   0  0  0  0  0  0  0  0  0  0  0  0
    1.4289   -1.6500    0.0000 O   0  0  0  0  0  0  0  0  0  0  0  0
  1  2  2  0  0  0  0
  2  3  1  0  0  0  0
  3  4  2  0  0  0  0
  4  5  1  0  0  0  0
  5  6  2  0  0  0  0
  1  6  1  0  0  0  0
  5  7  1  0  0  0  0
  2  8  1  0  0  0  0
  8  9  1  0  0  0  0
  9 10  1  0  0  0  0
  8 11  2  0  0  0  0
M  END
>  <Name>
Vanatone

>  <CAS>
70-70-2

>  <Formula>
C9H10O2

>  <MolWt>
150.17 

>  <Bioactivity>
It is a substrate of An arylketone monooxygenase  purified from Pseudomonas putida JD1 by ion exchange and affinity chromatography.

>  <Pathways>
Others

>  <Target>
Others

>  <Receptor>
Others

>  <Reference>
1. Cizmáriková R, Kozlovský J. Ceska Slov Farm. 1994 Oct;43(5):226-8.

$$$$
59-26-7
  Mrv1561503291623562D          

 13 13  0  0  0  0            999 V2000
    1.4289    0.8250    0.0000 C   0  0  0  0  0  0  0  0  0  0  0  0
    1.4289    0.0000    0.0000 C   0  0  0  0  0  0  0  0  0  0  0  0
    0.7145   -0.4125    0.0000 C   0  0  0  0  0  0  0  0  0  0  0  0
   -0.0000    0.0000    0.0000 N   0  0  0  0  0  0  0  0  0  0  0  0
   -0.0000    0.8250    0.0000 C   0  0  0  0  0  0  0  0  0  0  0  0
    0.7145    1.2375    0.0000 C   0  0  0  0  0  0  0  0  0  0  0  0
    0.7145    2.0625    0.0000 C   0  0  0  0  0  0  0  0  0  0  0  0
    0.0000    2.4750    0.0000 N   0  0  0  0  0  0  0  0  0  0  0  0
    0.0000    3.3000    0.0000 C   0  0  0  0  0  0  0  0  0  0  0  0
   -0.7145    3.7125    0.0000 C   0  0  0  0  0  0  0  0  0  0  0  0
   -0.7145    2.0625    0.0000 C   0  0  0  0  0  0  0  0  0  0  0  0
   -1.4289    2.4750    0.0000 C   0  0  0  0  0  0  0  0  0  0  0  0
    1.4289    2.4750    0.0000 O   0  0  0  0  0  0  0  0  0  0  0  0
  1  2  2  0  0  0  0
  2  3  1  0  0  0  0
  3  4  2  0  0  0  0
  4  5  1  0  0  0  0
  5  6  2  0  0  0  0
  1  6  1  0  0  0  0
  6  7  1  0  0  0  0
  7  8  1  0  0  0  0
  8  9  1  0  0  0  0
  9 10  1  0  0  0  0
  8 11  1  0  0  0  0
 11 12  1  0  0  0  0
  7 13  2  0  0  0  0
M  END
>  <Name>
Corvotone

>  <CAS>
59-26-7

>  <Formula>
C10H14N2O

>  <MolWt>
178.23 

>  <Bioactivity>
Nikethamide is a stimulant which mainly affects the respiratory cycle. Widely known by its former trade name of Coramine, it was used in the mid-twentieth century as a medical countermeasure against tranquilizer overdoses, before the advent of endotracheal intubation and positive-pressure lung expansion. It is now considered to be of no value for such purposes, and may be dangerous

>  <Pathways>
Neuroscience

>  <Target>
GABAR

>  <Receptor>
GABAR

>  <Reference>
1. ECKENHOFF JE, HAFKENSCHIEL JH. J Pharmacol Exp Ther. 1947 Dec;91(4):362-9.

$$$$
103-90-2
  Mrv1561503291623562D          

 11 11  0  0  0  0            999 V2000
    1.4289   -0.0000    0.0000 C   0  0  0  0  0  0  0  0  0  0  0  0
    0.7145   -0.4125    0.0000 C   0  0  0  0  0  0  0  0  0  0  0  0
    0.7145   -1.2375    0.0000 N   0  0  0  0  0  0  0  0  0  0  0  0
    1.4289   -1.6500    0.0000 C   0  0  0  0  0  0  0  0  0  0  0  0
    1.4289   -2.4750    0.0000 O   0  0  0  0  0  0  0  0  0  0  0  0
    2.1434   -1.2375    0.0000 C   0  0  0  0  0  0  0  0  0  0  0  0
   -0.0000   -0.0000    0.0000 C   0  0  0  0  0  0  0  0  0  0  0  0
   -0.0000    0.8250    0.0000 C   0  0  0  0  0  0  0  0  0  0  0  0
    0.7145    1.2375    0.0000 C   0  0  0  0  0  0  0  0  0  0  0  0
    1.4289    0.8250    0.0000 C   0  0  0  0  0  0  0  0  0  0  0  0
    0.7145    2.0625    0.0000 O   0  0  0  0  0  0  0  0  0  0  0  0
  1  2  2  0  0  0  0
  2  3  1  0  0  0  0
  3  4  1  0  0  0  0
  4  5  2  0  0  0  0
  4  6  1  0  0  0  0
  2  7  1  0  0  0  0
  7  8  2  0  0  0  0
  8  9  1  0  0  0  0
  9 10  2  0  0  0  0
  1 10  1  0  0  0  0
  9 11  1  0  0  0  0
M  END
>  <Name>
Acetaminophen

>  <CAS>
103-90-2

>  <Formula>
C8H9NO2

>  <MolWt>
151.16 

>  <Bioactivity>
Analgesic antipyretic derivative of acetanilide. It has weak anti-inflammatory properties and is used as a common analgesic, but may cause liver, blood cell, and kidney damage. 

>  <Pathways>
Neuroscience

>  <Target>
COX inhibitor

>  <Receptor>
COX1, COX2

>  <Reference>
1. Botting R, Ayoub SS. Prostaglandins Leukot Essent Fatty Acids. 2005 Feb;72(2):85-7. 

$$$$
6197-30-4
  Mrv1561503291623562D          

 27 28  0  0  0  0            999 V2000
    0.7145   -1.2375    0.0000 C   0  0  0  0  0  0  0  0  0  0  0  0
   -0.0000   -0.8250    0.0000 C   0  0  0  0  0  0  0  0  0  0  0  0
   -0.7145   -1.2375    0.0000 C   0  0  0  0  0  0  0  0  0  0  0  0
   -1.4289   -0.8250    0.0000 C   0  0  0  0  0  0  0  0  0  0  0  0
   -2.1434   -1.2375    0.0000 C   0  0  0  0  0  0  0  0  0  0  0  0
   -2.8579   -0.8250    0.0000 C   0  0  0  0  0  0  0  0  0  0  0  0
   -2.8579    0.0000    0.0000 C   0  0  0  0  0  0  0  0  0  0  0  0
   -2.1434    0.4125    0.0000 C   0  0  0  0  0  0  0  0  0  0  0  0
   -1.4289    0.0000    0.0000 C   0  0  0  0  0  0  0  0  0  0  0  0
   -0.7145   -2.0625    0.0000 C   0  0  0  0  0  0  0  0  0  0  0  0
   -0.0000   -2.4750    0.0000 C   0  0  0  0  0  0  0  0  0  0  0  0
    0.7145   -2.0625    0.0000 O   0  0  0  0  0  0  0  0  0  0  0  0
    1.4289   -2.4750    0.0000 C   0  0  0  0  0  0  0  0  0  0  0  0
    2.1434   -2.0625    0.0000 C   0  0  0  0  0  0  0  0  0  0  0  0
    2.8579   -2.4750    0.0000 C   0  0  0  0  0  0  0  0  0  0  0  0
    3.5724   -2.0625    0.0000 C   0  0  0  0  0  0  0  0  0  0  0  0
    4.2868   -2.4750    0.0000 C   0  0  0  0  0  0  0  0  0  0  0  0
    5.0013   -2.0625    0.0000 C   0  0  0  0  0  0  0  0  0  0  0  0
    2.1434   -1.2375    0.0000 C   0  0  0  0  0  0  0  0  0  0  0  0
    2.8579   -0.8250    0.0000 C   0  0  0  0  0  0  0  0  0  0  0  0
   -0.0000   -3.3000    0.0000 O   0  0  0  0  0  0  0  0  0  0  0  0
   -1.4289   -2.4750    0.0000 C   0  0  0  0  0  0  0  0  0  0  0  0
   -2.1434   -2.8875    0.0000 N   0  0  0  0  0  0  0  0  0  0  0  0
   -0.0000    0.0000    0.0000 C   0  0  0  0  0  0  0  0  0  0  0  0
    0.7145    0.4125    0.0000 C   0  0  0  0  0  0  0  0  0  0  0  0
    1.4289    0.0000    0.0000 C   0  0  0  0  0  0  0  0  0  0  0  0
    1.4289   -0.8250    0.0000 C   0  0  0  0  0  0  0  0  0  0  0  0
  1  2  2  0  0  0  0
  2  3  1  0  0  0  0
  3  4  1  0  0  0  0
  4  5  2  0  0  0  0
  5  6  1  0  0  0  0
  6  7  2  0  0  0  0
  7  8  1  0  0  0  0
  8  9  2  0  0  0  0
  4  9  1  0  0  0  0
  3 10  2  0  0  0  0
 10 11  1  0  0  0  0
 11 12  1  0  0  0  0
 12 13  1  0  0  0  0
 13 14  1  0  0  0  0
 14 15  1  0  0  0  0
 15 16  1  0  0  0  0
 16 17  1  0  0  0  0
 17 18  1  0  0  0  0
 14 19  1  0  0  0  0
 19 20  1  0  0  0  0
 11 21  2  0  0  0  0
 10 22  1  0  0  0  0
 22 23  3  0  0  0  0
  2 24  1  0  0  0  0
 24 25  2  0  0  0  0
 25 26  1  0  0  0  0
 26 27  2  0  0  0  0
  1 27  1  0  0  0  0
M  END
>  <Name>
Octocrilene

>  <CAS>
6197-30-4

>  <Formula>
C24H27NO2

>  <MolWt>
361.48 

>  <Bioactivity>
Octocrylene is an organic compound used as an ingredient in sunscreens and cosmetics. It is an ester formed by the condensation of a diphenylcyanoacrylate with 2-ethylhexanol. It is a viscous, oily liquid that is clear and colorless. This organic compound can penetrate into the skin where it acts as a photosensitizer. This results in an increased production of free radicals under illumination. 

>  <Pathways>
Others

>  <Target>
Others

>  <Receptor>
Others

>  <Reference>
1. Hanson KM. Free Radic Biol Med. 2006 Oct 15;41(8):1205-12.

$$$$
121-32-4
  Mrv1561503291623562D          

 12 12  0  0  0  0            999 V2000
    1.4289    0.8250    0.0000 C   0  0  0  0  0  0  0  0  0  0  0  0
    1.4289    0.0000    0.0000 C   0  0  0  0  0  0  0  0  0  0  0  0
    0.7145   -0.4125    0.0000 C   0  0  0  0  0  0  0  0  0  0  0  0
   -0.0000    0.0000    0.0000 C   0  0  0  0  0  0  0  0  0  0  0  0
   -0.0000    0.8250    0.0000 C   0  0  0  0  0  0  0  0  0  0  0  0
    0.7145    1.2375    0.0000 C   0  0  0  0  0  0  0  0  0  0  0  0
    0.7145    2.0625    0.0000 C   0  0  0  0  0  0  0  0  0  0  0  0
    0.0000    2.4750    0.0000 O   0  0  0  0  0  0  0  0  0  0  0  0
    0.7145   -1.2375    0.0000 O   0  0  0  0  0  0  0  0  0  0  0  0
    2.1434   -0.4125    0.0000 O   0  0  0  0  0  0  0  0  0  0  0  0
    2.1434   -1.2375    0.0000 C   0  0  0  0  0  0  0  0  0  0  0  0
    2.8579   -1.6500    0.0000 C   0  0  0  0  0  0  0  0  0  0  0  0
  1  2  2  0  0  0  0
  2  3  1  0  0  0  0
  3  4  2  0  0  0  0
  4  5  1  0  0  0  0
  5  6  2  0  0  0  0
  1  6  1  0  0  0  0
  6  7  1  0  0  0  0
  7  8  2  0  0  0  0
  3  9  1  0  0  0  0
  2 10  1  0  0  0  0
 10 11  1  0  0  0  0
 11 12  1  0  0  0  0
M  END
>  <Name>
Ethyl vanillin

>  <CAS>
121-32-4

>  <Formula>
C9H10O3

>  <MolWt>
166.17 

>  <Bioactivity>
As a flavorant, ethylvanillin is about three times as potent as vanillin and is used in the production of chocolate.

>  <Pathways>
Others

>  <Target>
Others

>  <Receptor>
Others

>  <Reference>
1. Cocinero EJ, et al. Phys Chem Chem Phys. 2010 Oct 21;12(39):12486-93. 

$$$$
57-09-0
  Mrv1561503291623562D          

 21 19  0  0  0  0            999 V2000
   -2.6793    0.2681    0.0000 C   0  0  0  0  0  0  0  0  0  0  0  0
   -1.9648   -0.1444    0.0000 C   0  0  0  0  0  0  0  0  0  0  0  0
   -1.2503    0.2681    0.0000 C   0  0  0  0  0  0  0  0  0  0  0  0
   -0.5359   -0.1444    0.0000 C   0  0  0  0  0  0  0  0  0  0  0  0
    0.1786    0.2681    0.0000 C   0  0  0  0  0  0  0  0  0  0  0  0
    0.8931   -0.1444    0.0000 C   0  0  0  0  0  0  0  0  0  0  0  0
    1.6076    0.2681    0.0000 C   0  0  0  0  0  0  0  0  0  0  0  0
    2.3220   -0.1444    0.0000 C   0  0  0  0  0  0  0  0  0  0  0  0
    3.0365    0.2681    0.0000 C   0  0  0  0  0  0  0  0  0  0  0  0
    3.7510   -0.1444    0.0000 C   0  0  0  0  0  0  0  0  0  0  0  0
    4.4654    0.2681    0.0000 C   0  0  0  0  0  0  0  0  0  0  0  0
    5.1799   -0.1444    0.0000 C   0  0  0  0  0  0  0  0  0  0  0  0
    5.8944    0.2681    0.0000 C   0  0  0  0  0  0  0  0  0  0  0  0
    6.6089   -0.1444    0.0000 C   0  0  0  0  0  0  0  0  0  0  0  0
   -3.3937   -0.1444    0.0000 C   0  0  0  0  0  0  0  0  0  0  0  0
   -4.1082    0.2681    0.0000 C   0  0  0  0  0  0  0  0  0  0  0  0
   -4.8227   -0.1444    0.0000 N   0  3  0  0  0  0  0  0  0  0  0  0
   -5.5371   -0.5569    0.0000 C   0  0  0  0  0  0  0  0  0  0  0  0
   -5.2352    0.5701    0.0000 C   0  0  0  0  0  0  0  0  0  0  0  0
   -4.4102   -0.8588    0.0000 C   0  0  0  0  0  0  0  0  0  0  0  0
    8.9660    0.0000    0.0000 Br  0  5  0  0  0  0  0  0  0  0  0  0
  1  2  1  0  0  0  0
  2  3  1  0  0  0  0
  3  4  1  0  0  0  0
  4  5  1  0  0  0  0
  5  6  1  0  0  0  0
  6  7  1  0  0  0  0
  7  8  1  0  0  0  0
  8  9  1  0  0  0  0
  9 10  1  0  0  0  0
 10 11  1  0  0  0  0
 11 12  1  0  0  0  0
 12 13  1  0  0  0  0
 13 14  1  0  0  0  0
  1 15  1  0  0  0  0
 15 16  1  0  0  0  0
 16 17  1  0  0  0  0
 17 18  1  0  0  0  0
 17 19  1  0  0  0  0
 17 20  1  0  0  0  0
M  CHG  2  17   1  21  -1
M  END
>  <Name>
Lauroseptol

>  <CAS>
57-09-0

>  <Formula>
C19H42BrN

>  <MolWt>
364.46 

>  <Bioactivity>
Cetrimonium Bromide is a known component of the broad-spectrum antiseptic cetrimide, which is a mixture of different quaternary ammonium salts.

>  <Pathways>
Others

>  <Target>
Others

>  <Receptor>
Others

>  <Reference>
1. Ito E, et al. Mol Pharmacol, 2009, 76(5), 969-983.

$$$$
6284-40-8
  Mrv1561503291623562D          

 13 12  0  0  0  0            999 V2000
    7.2849    2.5559    0.0000 C   0  0  0  0  0  0  0  0  0  0  0  0
    6.5704    2.1434    0.0000 C   0  0  0  0  0  0  0  0  0  0  0  0
    5.8559    2.5559    0.0000 C   0  0  0  0  0  0  0  0  0  0  0  0
    5.1414    2.1434    0.0000 C   0  0  0  0  0  0  0  0  0  0  0  0
    4.4270    2.5559    0.0000 C   0  0  0  0  0  0  0  0  0  0  0  0
    3.7125    2.1434    0.0000 C   0  0  0  0  0  0  0  0  0  0  0  0
    2.9980    2.5559    0.0000 O   0  0  0  0  0  0  0  0  0  0  0  0
    4.4270    3.3809    0.0000 O   0  0  0  0  0  0  0  0  0  0  0  0
    5.1414    1.3184    0.0000 O   0  0  0  0  0  0  0  0  0  0  0  0
    5.8559    3.3809    0.0000 O   0  0  0  0  0  0  0  0  0  0  0  0
    6.5704    1.3184    0.0000 O   0  0  0  0  0  0  0  0  0  0  0  0
    7.9993    2.1434    0.0000 N   0  0  0  0  0  0  0  0  0  0  0  0
    8.7138    2.5559    0.0000 C   0  0  0  0  0  0  0  0  0  0  0  0
  1  2  1  0  0  0  0
  2  3  1  0  0  0  0
  3  4  1  0  0  0  0
  4  5  1  0  0  0  0
  5  6  1  0  0  0  0
  6  7  1  0  0  0  0
  5  8  1  0  0  0  0
  4  9  1  0  0  0  0
  3 10  1  0  0  0  0
  2 11  1  0  0  0  0
  1 12  1  0  0  0  0
 12 13  1  0  0  0  0
M  END
>  <Name>
Meglumine

>  <CAS>
6284-40-8

>  <Formula>
C7H17NO5

>  <MolWt>
195.21 

>  <Bioactivity>
Meglumine is an amino sugar derived from sorbitol. It is often used as an excipient in pharmaceuticals and in conjunction with iodinated compounds in contrast media such as diatrizoate meglumine and iodipamide meglumine.

>  <Pathways>
Others

>  <Target>
Others

>  <Receptor>
Others

>  <Reference>
1. Navaei A, et al. Drug Dev Ind Pharm. 2014 Jun;40(6):701-10. 

$$$$
T0509
  Mrv1561503291623562D          

 12 13  0  0  0  0            999 V2000
   -0.7145   -0.4125    0.0000 C   0  0  0  0  0  0  0  0  0  0  0  0
   -0.7145   -1.2375    0.0000 C   0  0  0  0  0  0  0  0  0  0  0  0
   -0.0000   -1.6500    0.0000 C   0  0  0  0  0  0  0  0  0  0  0  0
    0.7145   -1.2375    0.0000 C   0  0  0  0  0  0  0  0  0  0  0  0
    0.7145   -0.4125    0.0000 C   0  0  0  0  0  0  0  0  0  0  0  0
   -0.0000   -0.0000    0.0000 C   0  0  0  0  0  0  0  0  0  0  0  0
   -0.0000    0.8250    0.0000 Cl  0  0  0  0  0  0  0  0  0  0  0  0
    1.4289    0.0000    0.0000 C   0  0  0  0  0  0  0  0  0  0  0  0
    2.1434   -0.4125    0.0000 C   0  0  0  0  0  0  0  0  0  0  0  0
    2.1434   -1.2375    0.0000 C   0  0  0  0  0  0  0  0  0  0  0  0
    1.4289   -1.6500    0.0000 N   0  0  0  0  0  0  0  0  0  0  0  0
    0.0000   -2.4750    0.0000 O   0  0  0  0  0  0  0  0  0  0  0  0
  1  2  2  0  0  0  0
  2  3  1  0  0  0  0
  3  4  2  0  0  0  0
  4  5  1  0  0  0  0
  5  6  2  0  0  0  0
  1  6  1  0  0  0  0
  6  7  1  0  0  0  0
  5  8  1  0  0  0  0
  8  9  2  0  0  0  0
  9 10  1  0  0  0  0
 10 11  2  0  0  0  0
  4 11  1  0  0  0  0
  3 12  1  0  0  0  0
M  END
>  <Name>
Dermofongin

>  <CAS>
130-16-5

>  <Formula>
C9H6ClNO

>  <MolWt>
179.60 

>  <Bioactivity>
5-Chloro-8-hydroxyquinoline, also called  Cloxiquine, has the efficancy of anti-viral.

>  <Pathways>
Microbiology & Virology

>  <Target>
Antiviral

>  <Receptor>
Others

>  <Reference>
1. Latosi?ska JN, et al. J Mol Model. 2011 Jul;17(7):1781-800. 

$$$$
T0512
  Mrv1561503291623562D          

 27 29  0  0  0  0            999 V2000
   -3.6791    6.8277    0.0000 C   0  0  0  0  0  0  0  0  0  0  0  0
   -4.3935    7.2402    0.0000 C   0  0  0  0  0  0  0  0  0  0  0  0
   -4.3935    8.0652    0.0000 C   0  0  0  0  0  0  0  0  0  0  0  0
   -3.6791    8.4777    0.0000 C   0  0  0  0  0  0  0  0  0  0  0  0
   -2.9646    8.0652    0.0000 C   0  0  0  0  0  0  0  0  0  0  0  0
   -2.9646    7.2402    0.0000 C   0  0  0  0  0  0  0  0  0  0  0  0
   -2.2501    6.8277    0.0000 C   0  0  0  0  0  0  0  0  0  0  0  0
   -1.5356    7.2402    0.0000 N   0  0  0  0  0  0  0  0  0  0  0  0
   -0.8212    6.8277    0.0000 C   0  0  0  0  0  0  0  0  0  0  0  0
   -0.1067    7.2402    0.0000 C   0  0  0  0  0  0  0  0  0  0  0  0
    0.6078    6.8277    0.0000 C   0  0  0  0  0  0  0  0  0  0  0  0
    0.6078    6.0027    0.0000 C   0  0  0  0  0  0  0  0  0  0  0  0
   -0.1067    5.5902    0.0000 C   0  0  0  0  0  0  0  0  0  0  0  0
   -0.8212    6.0027    0.0000 C   0  0  0  0  0  0  0  0  0  0  0  0
    1.3222    5.5902    0.0000 S   0  0  0  0  0  0  0  0  0  0  0  0
    2.0367    5.1777    0.0000 N   0  0  0  0  0  0  0  0  0  0  0  0
    2.0367    4.3527    0.0000 C   0  0  0  0  0  0  0  0  0  0  0  0
    2.7041    3.8678    0.0000 N   0  0  0  0  0  0  0  0  0  0  0  0
    2.4492    3.0831    0.0000 C   0  0  0  0  0  0  0  0  0  0  0  0
    1.6242    3.0831    0.0000 C   0  0  0  0  0  0  0  0  0  0  0  0
    1.3693    3.8678    0.0000 S   0  0  0  0  0  0  0  0  0  0  0  0
    0.9097    4.8757    0.0000 O   0  0  0  0  0  0  0  0  0  0  0  0
    1.7347    6.3047    0.0000 O   0  0  0  0  0  0  0  0  0  0  0  0
   -2.2501    6.0027    0.0000 O   0  0  0  0  0  0  0  0  0  0  0  0
   -2.2501    8.4777    0.0000 C   0  0  0  0  0  0  0  0  0  0  0  0
   -1.5356    8.0652    0.0000 O   0  0  0  0  0  0  0  0  0  0  0  0
   -2.2501    9.3027    0.0000 O   0  0  0  0  0  0  0  0  0  0  0  0
  1  2  2  0  0  0  0
  2  3  1  0  0  0  0
  3  4  2  0  0  0  0
  4  5  1  0  0  0  0
  5  6  2  0  0  0  0
  1  6  1  0  0  0  0
  6  7  1  0  0  0  0
  7  8  1  0  0  0  0
  8  9  1  0  0  0  0
  9 10  2  0  0  0  0
 10 11  1  0  0  0  0
 11 12  2  0  0  0  0
 12 13  1  0  0  0  0
 13 14  2  0  0  0  0
  9 14  1  0  0  0  0
 12 15  1  0  0  0  0
 15 16  1  0  0  0  0
 16 17  1  0  0  0  0
 17 18  2  0  0  0  0
 18 19  1  0  0  0  0
 19 20  2  0  0  0  0
 20 21  1  0  0  0  0
 17 21  1  0  0  0  0
 15 22  2  0  0  0  0
 15 23  2  0  0  0  0
  7 24  2  0  0  0  0
  5 25  1  0  0  0  0
 25 26  1  0  0  0  0
 25 27  2  0  0  0  0
M  END
>  <Name>
Phthalylsulfathiazole

>  <CAS>
85-73-4

>  <Formula>
C17H13N3O5S2

>  <MolWt>
403.43 

>  <Bioactivity>
Phthalylsulfathiazole belongs to the group of drugs called sulfonamides. The drug is a broad spectrum antimicrobial that can treat different types of infections including intestinal. The mechanism of action depends is based on competitive antagonism with para-aminobenzoic acid and inhibition of dihydropteroate synthetase activity, that in turn leads to impaired synthesis of dihydrofolic acid and as a result its active metabolite that is necessary for the synthesis of purine and pyrimidine.

>  <Pathways>
Microbiology & Virology

>  <Target>
Antibiotic

>  <Receptor>
DNA

>  <Reference>
1. FLORESTANO HJ, KENNEDY JF. J Lab Clin Med. 1946 Jul;31(7):757-62. 

$$$$
51-03-6
  Mrv1561503291623562D          

 24 25  0  0  0  0            999 V2000
   -2.1434   -0.4125    0.0000 C   0  0  0  0  0  0  0  0  0  0  0  0
   -1.4289   -0.8250    0.0000 C   0  0  0  0  0  0  0  0  0  0  0  0
   -0.7145   -0.4125    0.0000 C   0  0  0  0  0  0  0  0  0  0  0  0
    0.0000   -0.8250    0.0000 O   0  0  0  0  0  0  0  0  0  0  0  0
    0.7145   -0.4125    0.0000 C   0  0  0  0  0  0  0  0  0  0  0  0
    1.4289   -0.8250    0.0000 C   0  0  0  0  0  0  0  0  0  0  0  0
    2.1434   -0.4125    0.0000 O   0  0  0  0  0  0  0  0  0  0  0  0
    2.8579   -0.8250    0.0000 C   0  0  0  0  0  0  0  0  0  0  0  0
    3.5724   -0.4125    0.0000 C   0  0  0  0  0  0  0  0  0  0  0  0
    4.2868   -0.8250    0.0000 O   0  0  0  0  0  0  0  0  0  0  0  0
    5.0013   -0.4125    0.0000 C   0  0  0  0  0  0  0  0  0  0  0  0
    5.7158   -0.8250    0.0000 C   0  0  0  0  0  0  0  0  0  0  0  0
    6.4302   -0.4125    0.0000 C   0  0  0  0  0  0  0  0  0  0  0  0
    7.1447   -0.8250    0.0000 C   0  0  0  0  0  0  0  0  0  0  0  0
   -1.4289   -1.6500    0.0000 C   0  0  0  0  0  0  0  0  0  0  0  0
   -2.1434   -2.0625    0.0000 C   0  0  0  0  0  0  0  0  0  0  0  0
   -2.8579   -1.6500    0.0000 C   0  0  0  0  0  0  0  0  0  0  0  0
   -2.8579   -0.8250    0.0000 C   0  0  0  0  0  0  0  0  0  0  0  0
   -3.6425   -0.5701    0.0000 O   0  0  0  0  0  0  0  0  0  0  0  0
   -4.1274   -1.2375    0.0000 C   0  0  0  0  0  0  0  0  0  0  0  0
   -3.6425   -1.9049    0.0000 O   0  0  0  0  0  0  0  0  0  0  0  0
   -0.7145   -2.0625    0.0000 C   0  0  0  0  0  0  0  0  0  0  0  0
    0.0000   -1.6500    0.0000 C   0  0  0  0  0  0  0  0  0  0  0  0
    0.7145   -2.0625    0.0000 C   0  0  0  0  0  0  0  0  0  0  0  0
  1  2  2  0  0  0  0
  2  3  1  0  0  0  0
  3  4  1  0  0  0  0
  4  5  1  0  0  0  0
  5  6  1  0  0  0  0
  6  7  1  0  0  0  0
  7  8  1  0  0  0  0
  8  9  1  0  0  0  0
  9 10  1  0  0  0  0
 10 11  1  0  0  0  0
 11 12  1  0  0  0  0
 12 13  1  0  0  0  0
 13 14  1  0  0  0  0
  2 15  1  0  0  0  0
 15 16  2  0  0  0  0
 16 17  1  0  0  0  0
 17 18  2  0  0  0  0
  1 18  1  0  0  0  0
 18 19  1  0  0  0  0
 19 20  1  0  0  0  0
 20 21  1  0  0  0  0
 17 21  1  0  0  0  0
 15 22  1  0  0  0  0
 22 23  1  0  0  0  0
 23 24  1  0  0  0  0
M  END
>  <Name>
Piperonyl butoxide

>  <CAS>
51-03-6

>  <Formula>
C19H30O5

>  <MolWt>
338.44 

>  <Bioactivity>
An insecticide synergist, especially for pyrethroids and ROTENONE. 

>  <Pathways>
Others

>  <Target>
Others

>  <Receptor>
MFOs

>  <Reference>
1. Casida, J. E. J Agric Food Chem. 1970 Sep-Oct;18(5):753-72. 

$$$$
60-80-0
  Mrv1561503291623562D          

 14 15  0  0  0  0            999 V2000
    2.0367    1.1759    0.0000 C   0  0  0  0  0  0  0  0  0  0  0  0
    2.0367    2.0009    0.0000 C   0  0  0  0  0  0  0  0  0  0  0  0
    2.7512    2.4134    0.0000 C   0  0  0  0  0  0  0  0  0  0  0  0
    3.4656    2.0009    0.0000 C   0  0  0  0  0  0  0  0  0  0  0  0
    3.4656    1.1759    0.0000 C   0  0  0  0  0  0  0  0  0  0  0  0
    2.7512    0.7634    0.0000 C   0  0  0  0  0  0  0  0  0  0  0  0
    2.7512   -0.0616    0.0000 N   0  0  0  0  0  0  0  0  0  0  0  0
    3.4186   -0.5465    0.0000 N   0  0  0  0  0  0  0  0  0  0  0  0
    3.1637   -1.3312    0.0000 C   0  0  0  0  0  0  0  0  0  0  0  0
    2.3387   -1.3312    0.0000 C   0  0  0  0  0  0  0  0  0  0  0  0
    2.0837   -0.5465    0.0000 C   0  0  0  0  0  0  0  0  0  0  0  0
    1.2991   -0.2916    0.0000 O   0  0  0  0  0  0  0  0  0  0  0  0
    3.6486   -1.9986    0.0000 C   0  0  0  0  0  0  0  0  0  0  0  0
    4.2032   -0.2916    0.0000 C   0  0  0  0  0  0  0  0  0  0  0  0
  1  2  2  0  0  0  0
  2  3  1  0  0  0  0
  3  4  2  0  0  0  0
  4  5  1  0  0  0  0
  5  6  2  0  0  0  0
  1  6  1  0  0  0  0
  6  7  1  0  0  0  0
  7  8  1  0  0  0  0
  8  9  1  0  0  0  0
  9 10  2  0  0  0  0
 10 11  1  0  0  0  0
  7 11  1  0  0  0  0
 11 12  2  0  0  0  0
  9 13  1  0  0  0  0
  8 14  1  0  0  0  0
M  END
>  <Name>
Antipyrine

>  <CAS>
60-80-0

>  <Formula>
C11H12N2O

>  <MolWt>
188.23 

>  <Bioactivity>
An analgesic and antipyretic that has been given by mouth and as ear drops. Antipyrine is often used in testing the effects of other drugs or diseases on drug-metabolizing enzymes in the liver. .

>  <Pathways>
Neuroscience

>  <Target>
COX inhibitor

>  <Receptor>
Prostaglandin G/H synthase

>  <Reference>
1. Brune K, et al. Clin Exp Rheumatol. 2001, 19(6 Suppl 25):S51-7. 

$$$$
97-18-7
  Mrv1561503291623562D          

 19 20  0  0  0  0            999 V2000
   -0.0000   -1.6500    0.0000 C   0  0  0  0  0  0  0  0  0  0  0  0
   -0.0000   -2.4750    0.0000 C   0  0  0  0  0  0  0  0  0  0  0  0
    0.7145   -2.8875    0.0000 S   0  0  0  0  0  0  0  0  0  0  0  0
    1.4289   -2.4750    0.0000 C   0  0  0  0  0  0  0  0  0  0  0  0
    1.4289   -1.6500    0.0000 C   0  0  0  0  0  0  0  0  0  0  0  0
    2.1434   -1.2375    0.0000 C   0  0  0  0  0  0  0  0  0  0  0  0
    2.8579   -1.6500    0.0000 C   0  0  0  0  0  0  0  0  0  0  0  0
    2.8579   -2.4750    0.0000 C   0  0  0  0  0  0  0  0  0  0  0  0
    2.1434   -2.8875    0.0000 C   0  0  0  0  0  0  0  0  0  0  0  0
    3.5724   -2.8875    0.0000 Cl  0  0  0  0  0  0  0  0  0  0  0  0
    2.1434   -0.4125    0.0000 Cl  0  0  0  0  0  0  0  0  0  0  0  0
    0.7145   -1.2375    0.0000 O   0  0  0  0  0  0  0  0  0  0  0  0
   -0.7145   -2.8875    0.0000 C   0  0  0  0  0  0  0  0  0  0  0  0
   -1.4289   -2.4750    0.0000 C   0  0  0  0  0  0  0  0  0  0  0  0
   -1.4289   -1.6500    0.0000 C   0  0  0  0  0  0  0  0  0  0  0  0
   -0.7145   -1.2375    0.0000 C   0  0  0  0  0  0  0  0  0  0  0  0
   -0.7145   -0.4125    0.0000 Cl  0  0  0  0  0  0  0  0  0  0  0  0
   -2.1434   -2.8875    0.0000 Cl  0  0  0  0  0  0  0  0  0  0  0  0
   -0.7145   -3.7125    0.0000 O   0  0  0  0  0  0  0  0  0  0  0  0
  1  2  2  0  0  0  0
  2  3  1  0  0  0  0
  3  4  1  0  0  0  0
  4  5  2  0  0  0  0
  5  6  1  0  0  0  0
  6  7  2  0  0  0  0
  7  8  1  0  0  0  0
  8  9  2  0  0  0  0
  4  9  1  0  0  0  0
  8 10  1  0  0  0  0
  6 11  1  0  0  0  0
  5 12  1  0  0  0  0
  2 13  1  0  0  0  0
 13 14  2  0  0  0  0
 14 15  1  0  0  0  0
 15 16  2  0  0  0  0
  1 16  1  0  0  0  0
 16 17  1  0  0  0  0
 14 18  1  0  0  0  0
 13 19  1  0  0  0  0
M  END
>  <Name>
Bithionol

>  <CAS>
97-18-7

>  <Formula>
C12H6Cl4O2S

>  <MolWt>
356.04 

>  <Bioactivity>
Bithionol, formerly marketed as an active ingredient in various topical drug products, was shown to be a potent photosensitizer with the potential to cause serious skin disorders. Approvals of the NDA’s for bithionol drug products were withdrawn on October 24, 1967.

>  <Pathways>
Neuroscience

>  <Target>
Histamine Receptor antagonist

>  <Receptor>
Histamine Receptor

>  <Reference>
1. Xie Y, Cwiertny DM. Environ Sci Technol. 2010 Nov 15;44(22):8649-8655.

$$$$
T0875
  Mrv1561503291623562D          

 10  9  0  0  0  0            999 V2000
    1.9520    1.9520    0.0000 C   0  0  0  0  0  0  0  0  0  0  0  0
    1.9520    1.1270    0.0000 C   0  0  0  0  0  0  0  0  0  0  0  0
    1.2375    0.7145    0.0000 N   0  0  0  0  0  0  0  0  0  0  0  0
    0.5230    1.1270    0.0000 C   0  0  0  0  0  0  0  0  0  0  0  0
   -0.1914    0.7145    0.0000 C   0  0  0  0  0  0  0  0  0  0  0  0
    0.5230    1.9520    0.0000 O   0  0  0  0  0  0  0  0  0  0  0  0
    2.6664    0.7145    0.0000 C   0  0  0  0  0  0  0  0  0  0  0  0
    3.3809    1.1270    0.0000 O   0  0  0  0  0  0  0  0  0  0  0  0
    2.6664   -0.1105    0.0000 O   0  0  0  0  0  0  0  0  0  0  0  0
    2.6664    2.3645    0.0000 S   0  0  0  0  0  0  0  0  0  0  0  0
  1  2  1  0  0  0  0
  2  3  1  0  0  0  0
  3  4  1  0  0  0  0
  4  5  1  0  0  0  0
  4  6  2  0  0  0  0
  2  7  1  0  0  0  0
  7  8  1  0  0  0  0
  7  9  2  0  0  0  0
  1 10  1  0  0  0  0
M  END
>  <Name>
Acetylcysteine

>  <CAS>
616-91-1

>  <Formula>
C5H9NO3S

>  <MolWt>
163.19 

>  <Bioactivity>
Acetylcysteine is a derivative of cysteine; an acetyl group that is attached to the nitrogen atom. This compound is sold as a dietary supplement commonly claiming antioxidant and liver protecting effects.Acetylcysteine (also known as N-acetylcysteine or N-acetyl-L-cysteine or NAC) is primarily used as a mucolytic agent and in the management of acetaminophen poisoning. It is a derivative of cysteine with an acetyl group attached to the amino group of cysteine. NAC is essentially a prodrug that is converted to cysteine (in the intestine by the enzyme aminoacylase 1) and absorbed in the intestine into the blood stream. Cysteine is a key constituent to glutathione and hence administration of acetylcysteine replenishes glutathione stores. Acetylcysteine can also be used as a general antioxidant which can help mitigate symptoms for a variety of diseases exacerbated by reactive oxygen species (ROS). For instance, acetylcysteine is commonly used in individuals with renal impairment to prevent the precipitation of acute renal failure. Acetylcysteine has been shown to have efficacy in treating mild to moderate traumatic brain injury including ischemic brain injury, particularly in reducing neuronal losses, and also reducing cognitive and neurological symptoms when administered promptly after injury. N-acetylcysteine is now widely used in the treatment of HIV, and it has reported efficacy in chronic obstructive pulmonary disease and contrast-induced nephropathy. Acetylcysteine is also being successfully used to treat a variety of neuropsychiatric and neurodegenerative disorders including cocaine, cannabis, and smoking addictions, Alzheimer’s and Parkinson’s diseases, autism, compulsive and grooming disorders, schizophrenia, depression, and bipolar disorder. Recent data also shows that N-acetylcysteine inhibits muscle fatigue and can be used to enhance performance in endurance events and in exercise and endurance training. 

>  <Pathways>
Neuroscience;Immunology/Inflammation

>  <Target>
NF-?B inhibitor;GluR activator

>  <Receptor>
NF-KB;ACY1; Glutamate receptor ionotropic; NAPQI

>  <Reference>
1. Alvirez-Freites EJ, et al. Antimicrob Agents Chemother, 2002, 46(4), 1022-1025.

$$$$
T0880
  Mrv1561503291623562D          

  9  8  0  0  0  0            999 V2000
    0.8250   -0.0000    0.0000 C   0  0  0  0  0  0  0  0  0  0  0  0
    1.5395    0.4125    0.0000 C   0  0  0  0  0  0  0  0  0  0  0  0
    2.2539    0.8250    0.0000 N   0  3  0  0  0  0  0  0  0  0  0  0
    2.2539    1.6500    0.0000 O   0  0  0  0  0  0  0  0  0  0  0  0
    2.9684    0.4125    0.0000 O   0  5  0  0  0  0  0  0  0  0  0  0
    1.9520   -0.3020    0.0000 C   0  0  0  0  0  0  0  0  0  0  0  0
    2.7770   -0.3020    0.0000 O   0  0  0  0  0  0  0  0  0  0  0  0
    1.1270    1.1270    0.0000 Br  0  0  0  0  0  0  0  0  0  0  0  0
    0.1105    0.4125    0.0000 O   0  0  0  0  0  0  0  0  0  0  0  0
  1  2  1  0  0  0  0
  2  3  1  0  0  0  0
  3  4  2  0  0  0  0
  3  5  1  0  0  0  0
  2  6  1  0  0  0  0
  6  7  1  0  0  0  0
  2  8  1  0  0  0  0
  1  9  1  0  0  0  0
M  CHG  2   3   1   5  -1
M  END
>  <Name>
Bronidiol

>  <CAS>
52-51-7

>  <Formula>
C3H6NO4Br

>  <MolWt>
199.99 

>  <Bioactivity>
Bronopol is a Standardized Chemical Allergen. The physiologic effect of bronopol is by means of Increased Histamine Release and Cell-mediated Immunity. The chemical classification of bronopol is Allergens.

>  <Pathways>
Microbiology & Virology

>  <Target>
Antibiotic

>  <Receptor>
Others

>  <Reference>
1. Matczuk M, et al. Int J Cosmet Sci. 2012 Oct;34(5):451-7. 

$$$$
81-07-2
  Mrv1561503291623562D          

 12 13  0  0  0  0            999 V2000
    3.2789    1.2375    0.0000 C   0  0  0  0  0  0  0  0  0  0  0  0
    3.9934    0.8250    0.0000 C   0  0  0  0  0  0  0  0  0  0  0  0
    3.9934    0.0000    0.0000 C   0  0  0  0  0  0  0  0  0  0  0  0
    3.2789   -0.4125    0.0000 C   0  0  0  0  0  0  0  0  0  0  0  0
    2.5645   -0.0000    0.0000 C   0  0  0  0  0  0  0  0  0  0  0  0
    2.5645    0.8250    0.0000 C   0  0  0  0  0  0  0  0  0  0  0  0
    1.7798    1.0799    0.0000 S   0  0  0  0  0  0  0  0  0  0  0  0
    1.2949    0.4125    0.0000 N   0  0  0  0  0  0  0  0  0  0  0  0
    1.7798   -0.2549    0.0000 C   0  0  0  0  0  0  0  0  0  0  0  0
    1.5249   -1.0396    0.0000 O   0  0  0  0  0  0  0  0  0  0  0  0
    1.9429    1.8887    0.0000 O   0  0  0  0  0  0  0  0  0  0  0  0
    1.1726    1.6384    0.0000 O   0  0  0  0  0  0  0  0  0  0  0  0
  1  2  2  0  0  0  0
  2  3  1  0  0  0  0
  3  4  2  0  0  0  0
  4  5  1  0  0  0  0
  5  6  2  0  0  0  0
  1  6  1  0  0  0  0
  6  7  1  0  0  0  0
  7  8  1  0  0  0  0
  8  9  1  0  0  0  0
  5  9  1  0  0  0  0
  9 10  2  0  0  0  0
  7 11  2  0  0  0  0
  7 12  2  0  0  0  0
M  END
>  <Name>
Saccharin

>  <CAS>
81-07-2

>  <Formula>
C7H5NO3S

>  <MolWt>
183.18 

>  <Bioactivity>
Flavoring agent and non-nutritive sweetener.  

>  <Pathways>
Others

>  <Target>
Others

>  <Receptor>
Others

>  <Reference>
1. Just T, et al. Appetite. 2008 Nov;51(3):622-7. 

$$$$
T0897
  Mrv1561503291623562D          

 14 14  0  0  0  0            999 V2000
    0.9803   -0.1553    0.0000 C   0  0  0  0  0  0  0  0  0  0  0  0
    0.1553   -0.1553    0.0000 C   0  0  0  0  0  0  0  0  0  0  0  0
   -0.0997    0.6294    0.0000 O   0  0  0  0  0  0  0  0  0  0  0  0
    0.5678    1.1143    0.0000 C   0  0  0  0  0  0  0  0  0  0  0  0
    1.2352    0.6294    0.0000 C   0  0  0  0  0  0  0  0  0  0  0  0
    0.5678    1.9393    0.0000 C   0  0  0  0  0  0  0  0  0  0  0  0
    1.2822    2.3518    0.0000 N   0  0  0  0  0  0  0  0  0  0  0  0
    1.2822    3.1768    0.0000 N   0  0  0  0  0  0  0  0  0  0  0  0
    1.9967    3.5893    0.0000 C   0  0  0  0  0  0  0  0  0  0  0  0
    1.9967    4.4143    0.0000 N   0  0  0  0  0  0  0  0  0  0  0  0
    2.7112    3.1768    0.0000 O   0  0  0  0  0  0  0  0  0  0  0  0
   -0.3297   -0.8227    0.0000 N   0  3  0  0  0  0  0  0  0  0  0  0
    0.0059   -1.5764    0.0000 O   0  0  0  0  0  0  0  0  0  0  0  0
   -1.1501   -0.7365    0.0000 O   0  5  0  0  0  0  0  0  0  0  0  0
  1  2  2  0  0  0  0
  2  3  1  0  0  0  0
  3  4  1  0  0  0  0
  4  5  2  0  0  0  0
  1  5  1  0  0  0  0
  4  6  1  0  0  0  0
  6  7  2  0  0  0  0
  7  8  1  0  0  0  0
  8  9  1  0  0  0  0
  9 10  1  0  0  0  0
  9 11  2  0  0  0  0
  2 12  1  0  0  0  0
 12 13  2  0  0  0  0
 12 14  1  0  0  0  0
M  CHG  2  12   1  14  -1
M  END
>  <Name>
Furacilin

>  <CAS>
59-87-0

>  <Formula>
C6H6N4O4

>  <MolWt>
198.14 

>  <Bioactivity>
A topical anti-infective agent effective against gram-negative and gram-positive bacteria. It is used for superficial WOUNDS AND INJURIES and skin infections. Nitrofurazone has also been administered orally in the treatment of TRYPANOSOMIASIS. 

>  <Pathways>
Microbiology & Virology

>  <Target>
Antibiotic

>  <Receptor>
Pyruvate dehydrogenase, Malate dehydrogenase, Glutathione reductase

>  <Reference>
1. Imming P, et al. Nat Rev Drug Discov. 2006 Oct; 5(10):821-34. 


$$$$
T0898
  Mrv1561503291623562D          

 10 10  0  0  0  0            999 V2000
    1.4289    0.8250    0.0000 C   0  0  0  0  0  0  0  0  0  0  0  0
    1.4289    0.0000    0.0000 C   0  0  0  0  0  0  0  0  0  0  0  0
    0.7145   -0.4125    0.0000 C   0  0  0  0  0  0  0  0  0  0  0  0
   -0.0000    0.0000    0.0000 C   0  0  0  0  0  0  0  0  0  0  0  0
   -0.0000    0.8250    0.0000 C   0  0  0  0  0  0  0  0  0  0  0  0
    0.7145    1.2375    0.0000 C   0  0  0  0  0  0  0  0  0  0  0  0
    0.7145    2.0625    0.0000 O   0  0  0  0  0  0  0  0  0  0  0  0
   -0.7145   -0.4125    0.0000 C   0  0  0  0  0  0  0  0  0  0  0  0
    0.7145   -1.2375    0.0000 Cl  0  0  0  0  0  0  0  0  0  0  0  0
    2.1434   -0.4125    0.0000 C   0  0  0  0  0  0  0  0  0  0  0  0
  1  2  2  0  0  0  0
  2  3  1  0  0  0  0
  3  4  2  0  0  0  0
  4  5  1  0  0  0  0
  5  6  2  0  0  0  0
  1  6  1  0  0  0  0
  6  7  1  0  0  0  0
  4  8  1  0  0  0  0
  3  9  1  0  0  0  0
  2 10  1  0  0  0  0
M  END
>  <Name>
Ayrtol

>  <CAS>
88-04-0

>  <Formula>
C8H9ClO

>  <MolWt>
156.61 

>  <Bioactivity>
Chloroxylenol (4-chloro-3,5-dimethylphenol) is a broad spectrum antimicrobial chemical compound used to control bacteria, algae, fungi and virus. It is used in hospitals and households for disinfection and sanitation.

>  <Pathways>
Microbiology & Virology

>  <Target>
Antibiotic

>  <Receptor>
Others

>  <Reference>
1. Xu L, Wang J. Environ Eng Sci. 2013 Jun;30(6):294-301.

$$$$
520-45-6
  Mrv1561503291623562D          

 12 12  0  0  0  0            999 V2000
   -0.0000    2.4750    0.0000 C   0  0  0  0  0  0  0  0  0  0  0  0
    0.7145    2.0625    0.0000 C   0  0  0  0  0  0  0  0  0  0  0  0
    0.7145    1.2375    0.0000 C   0  0  0  0  0  0  0  0  0  0  0  0
    1.4289    0.8250    0.0000 C   0  0  0  0  0  0  0  0  0  0  0  0
    1.4289    0.0000    0.0000 C   0  0  0  0  0  0  0  0  0  0  0  0
    0.7145   -0.4125    0.0000 C   0  0  0  0  0  0  0  0  0  0  0  0
    0.7145   -1.2375    0.0000 C   0  0  0  0  0  0  0  0  0  0  0  0
    0.0000   -0.0000    0.0000 O   0  0  0  0  0  0  0  0  0  0  0  0
    0.0000    0.8250    0.0000 C   0  0  0  0  0  0  0  0  0  0  0  0
   -0.7145    1.2375    0.0000 O   0  0  0  0  0  0  0  0  0  0  0  0
    2.1434    1.2375    0.0000 O   0  0  0  0  0  0  0  0  0  0  0  0
    1.4289    2.4750    0.0000 O   0  0  0  0  0  0  0  0  0  0  0  0
  1  2  1  0  0  0  0
  2  3  1  0  0  0  0
  3  4  1  0  0  0  0
  4  5  1  0  0  0  0
  5  6  2  0  0  0  0
  6  7  1  0  0  0  0
  6  8  1  0  0  0  0
  8  9  1  0  0  0  0
  3  9  1  0  0  0  0
  9 10  2  0  0  0  0
  4 11  2  0  0  0  0
  2 12  2  0  0  0  0
M  END
>  <Name>
Dehydroacetic acid

>  <CAS>
520-45-6

>  <Formula>
C8H8O4

>  <MolWt>
168.15 

>  <Bioactivity>
Industrially, it is also used as a plasticizer in synthetic resins. It is used to reduce pickle bloating as a preservative for squash and strawberries. Also used in antienzyme toothpastes. Clinical tests show little to no evidence regarding the ingredient's toxicity and potential for irritation.

>  <Pathways>
Others

>  <Target>
Others

>  <Receptor>
Others

>  <Reference>
1. Ohtsuki T, et al. Food Chem. 2013 Nov 15;141(2):1322-7. 

$$$$
T0900
  Mrv1561503291623562D          

 24 22  0  0  0  0            999 V2000
   -5.6508    0.8625    0.0000 C   0  3  0  0  0  0  0  0  0  0  0  0
   -4.9363    1.2750    0.0000 C   0  0  0  0  0  0  0  0  0  0  0  0
   -4.2219    0.8625    0.0000 C   0  0  0  0  0  0  0  0  0  0  0  0
   -4.2219    0.0375    0.0000 N   0  0  0  0  0  0  0  0  0  0  0  0
   -4.9363   -0.3750    0.0000 C   0  0  0  0  0  0  0  0  0  0  0  0
   -5.6508    0.0375    0.0000 C   0  0  0  0  0  0  0  0  0  0  0  0
   -3.5074   -0.3750    0.0000 C   0  0  0  0  0  0  0  0  0  0  0  0
   -2.7929    0.0375    0.0000 C   0  0  0  0  0  0  0  0  0  0  0  0
   -2.0785   -0.3750    0.0000 C   0  0  0  0  0  0  0  0  0  0  0  0
   -1.3640    0.0375    0.0000 C   0  0  0  0  0  0  0  0  0  0  0  0
   -0.6495   -0.3750    0.0000 C   0  0  0  0  0  0  0  0  0  0  0  0
    0.0650    0.0375    0.0000 C   0  0  0  0  0  0  0  0  0  0  0  0
    0.7794   -0.3750    0.0000 C   0  0  0  0  0  0  0  0  0  0  0  0
    1.4939    0.0375    0.0000 C   0  0  0  0  0  0  0  0  0  0  0  0
    2.2084   -0.3750    0.0000 C   0  0  0  0  0  0  0  0  0  0  0  0
    2.9228    0.0375    0.0000 C   0  0  0  0  0  0  0  0  0  0  0  0
    3.6373   -0.3750    0.0000 C   0  0  0  0  0  0  0  0  0  0  0  0
    4.3518    0.0375    0.0000 C   0  0  0  0  0  0  0  0  0  0  0  0
    5.0662   -0.3750    0.0000 C   0  0  0  0  0  0  0  0  0  0  0  0
    5.7807    0.0375    0.0000 C   0  0  0  0  0  0  0  0  0  0  0  0
    6.4952   -0.3750    0.0000 C   0  0  0  0  0  0  0  0  0  0  0  0
    7.2097    0.0375    0.0000 C   0  0  0  0  0  0  0  0  0  0  0  0
    9.5668    0.0000    0.0000 Cl  0  5  0  0  0  0  0  0  0  0  0  0
    0.0000   -2.0250    0.0000 O   0  0  0  0  0  0  0  0  0  0  0  0
  1  2  1  0  0  0  0
  2  3  2  0  0  0  0
  3  4  1  0  0  0  0
  4  5  1  0  0  0  0
  5  6  2  0  0  0  0
  1  6  1  0  0  0  0
  4  7  1  0  0  0  0
  7  8  1  0  0  0  0
  8  9  1  0  0  0  0
  9 10  1  0  0  0  0
 10 11  1  0  0  0  0
 11 12  1  0  0  0  0
 12 13  1  0  0  0  0
 13 14  1  0  0  0  0
 14 15  1  0  0  0  0
 15 16  1  0  0  0  0
 16 17  1  0  0  0  0
 17 18  1  0  0  0  0
 18 19  1  0  0  0  0
 19 20  1  0  0  0  0
 20 21  1  0  0  0  0
 21 22  1  0  0  0  0
M  CHG  2   1   1  23  -1
M  END
>  <Name>
Cetylpyridinium chloride monohydrate

>  <CAS>
6004-24-6

>  <Formula>
C21H38ClN

>  <MolWt>
358.00 

>  <Bioactivity>
Cetylpyridinium chloride (CPC) is a cationic quaternary ammonium compound used in some types of mouthwashes, toothpastes, lozenges, throat sprays, breath sprays, and nasal sprays. It is an antiseptic that kills bacteria and other microorganisms. It has been shown to be effective in preventing dental plaque and reducing gingivitis. It has also been used as an ingredient in certain pesticides. Cetylpyridinium chloride may cause brown stains between the teeth and on the surface of teeth.

>  <Pathways>
Microbiology & Virology

>  <Target>
Antibiotic

>  <Receptor>
Others

>  <Reference>
1. Garcia-Godoy F, et al. Am J Dent. 2014 Aug;27(4):185-90.

$$$$
T0902
  Mrv1561503291623562D          

 26 29  0  0  0  0            999 V2000
   -0.7145   -0.4125    0.0000 C   0  0  0  0  0  0  0  0  0  0  0  0
   -0.7145   -1.2375    0.0000 C   0  0  0  0  0  0  0  0  0  0  0  0
   -0.0000   -1.6500    0.0000 C   0  0  0  0  0  0  0  0  0  0  0  0
    0.7145   -1.2375    0.0000 C   0  0  0  0  0  0  0  0  0  0  0  0
    0.7145   -0.4125    0.0000 C   0  0  0  0  0  0  0  0  0  0  0  0
   -0.0000    0.0000    0.0000 C   0  0  0  0  0  0  0  0  0  0  0  0
   -0.0000    0.8250    0.0000 C   0  0  0  0  0  0  0  0  0  0  0  0
    0.7145    1.2375    0.0000 C   0  0  0  0  0  0  0  0  0  0  0  0
    1.4289    0.8250    0.0000 C   0  0  0  0  0  0  0  0  0  0  0  0
    1.4289    0.0000    0.0000 N   0  0  0  0  0  0  0  0  0  0  0  0
    2.1434   -0.4125    0.0000 C   0  0  0  0  0  0  0  0  0  0  0  0
    2.8579   -0.0000    0.0000 C   0  0  0  0  0  0  0  0  0  0  0  0
    2.1434   -1.2375    0.0000 C   0  0  0  0  0  0  0  0  0  0  0  0
    1.4289   -1.6500    0.0000 O   0  0  0  0  0  0  0  0  0  0  0  0
    0.7145    2.0625    0.0000 C   0  0  0  0  0  0  0  0  0  0  0  0
    1.4289    2.4750    0.0000 O   0  0  0  0  0  0  0  0  0  0  0  0
    0.0000    2.4750    0.0000 O   0  0  0  0  0  0  0  0  0  0  0  0
   -0.7145    1.2375    0.0000 O   0  0  0  0  0  0  0  0  0  0  0  0
   -0.0000   -2.4750    0.0000 N   0  0  0  0  0  0  0  0  0  0  0  0
    0.7145   -2.8875    0.0000 C   0  0  0  0  0  0  0  0  0  0  0  0
    0.7145   -3.7125    0.0000 C   0  0  0  0  0  0  0  0  0  0  0  0
    0.0000   -4.1250    0.0000 N   0  0  0  0  0  0  0  0  0  0  0  0
    0.0000   -4.9500    0.0000 C   0  0  0  0  0  0  0  0  0  0  0  0
   -0.7145   -3.7125    0.0000 C   0  0  0  0  0  0  0  0  0  0  0  0
   -0.7145   -2.8875    0.0000 C   0  0  0  0  0  0  0  0  0  0  0  0
   -1.4289   -1.6500    0.0000 F   0  0  0  0  0  0  0  0  0  0  0  0
  1  2  2  0  0  0  0
  2  3  1  0  0  0  0
  3  4  2  0  0  0  0
  4  5  1  0  0  0  0
  5  6  2  0  0  0  0
  1  6  1  0  0  0  0
  6  7  1  0  0  0  0
  7  8  1  0  0  0  0
  8  9  2  0  0  0  0
  9 10  1  0  0  0  0
  5 10  1  0  0  0  0
 10 11  1  0  0  0  0
 11 12  1  0  0  0  0
 11 13  1  0  0  0  0
 13 14  1  0  0  0  0
  4 14  1  0  0  0  0
  8 15  1  0  0  0  0
 15 16  1  0  0  0  0
 15 17  2  0  0  0  0
  7 18  2  0  0  0  0
  3 19  1  0  0  0  0
 19 20  1  0  0  0  0
 20 21  1  0  0  0  0
 21 22  1  0  0  0  0
 22 23  1  0  0  0  0
 22 24  1  0  0  0  0
 24 25  1  0  0  0  0
 19 25  1  0  0  0  0
  2 26  1  0  0  0  0
M  END
>  <Name>
Ofloxacin

>  <CAS>
82419-36-1

>  <Formula>
C18H20FN3O4

>  <MolWt>
361.37 

>  <Bioactivity>
A synthetic fluoroquinolone antibacterial agent that inhibits the supercoiling activity of bacterial DNA GYRASE, halting DNA REPLICATION. 

>  <Pathways>
DNA Damage/DNA Repair

>  <Target>
Topoisomerase inhibitor

>  <Receptor>
Topoisomerase

>  <Reference>
1. Divo AA, et al. Antimicrob Agents Chemother. 1988 Aug;32(8):1182-6.

$$$$
T0904
  Mrv1561503291623562D          

 11 11  0  0  0  0            999 V2000
    1.4289    0.8250    0.0000 C   0  0  0  0  0  0  0  0  0  0  0  0
    1.4289    0.0000    0.0000 C   0  0  0  0  0  0  0  0  0  0  0  0
    0.7145   -0.4125    0.0000 C   0  0  0  0  0  0  0  0  0  0  0  0
   -0.0000    0.0000    0.0000 C   0  0  0  0  0  0  0  0  0  0  0  0
   -0.0000    0.8250    0.0000 C   0  0  0  0  0  0  0  0  0  0  0  0
    0.7145    1.2375    0.0000 C   0  0  0  0  0  0  0  0  0  0  0  0
    0.7145    2.0625    0.0000 Hg  0  0  0  0  0  0  0  0  0  0  0  0
    0.7145    2.8875    0.0000 O   0  0  0  0  0  0  0  0  0  0  0  0
    1.4289    3.3000    0.0000 C   0  0  0  0  0  0  0  0  0  0  0  0
    1.4289    4.1250    0.0000 C   0  0  0  0  0  0  0  0  0  0  0  0
    2.1434    2.8875    0.0000 O   0  0  0  0  0  0  0  0  0  0  0  0
  1  2  2  0  0  0  0
  2  3  1  0  0  0  0
  3  4  2  0  0  0  0
  4  5  1  0  0  0  0
  5  6  2  0  0  0  0
  1  6  1  0  0  0  0
  6  7  1  0  0  0  0
  7  8  1  0  0  0  0
  8  9  1  0  0  0  0
  9 10  1  0  0  0  0
  9 11  2  0  0  0  0
M  END
>  <Name>
Phenylmercuric acetate

>  <CAS>
62-38-4

>  <Formula>
C8H8HgO2

>  <MolWt>
336.74 

>  <Bioactivity>
A phenyl mercury compound used mainly as a fungicide. Has also been used as a herbicide, slimicide, and bacteriocide. 

>  <Pathways>
Microbiology & Virology

>  <Target>
Antibacterial

>  <Receptor>
Others

>  <Reference>
1. Xu Y, et al. J Antimicrob Chemother. 2012 Aug;67(8):1941-4. 

$$$$
2451-01-6
  Mrv1561503291623562D          

 13 12  0  0  0  0            999 V2000
    0.0000   -2.0991    0.0000 C   0  0  0  0  0  0  0  0  0  0  0  0
   -0.0000   -1.2741    0.0000 C   0  0  0  0  0  0  0  0  0  0  0  0
    0.8250   -1.2741    0.0000 O   0  0  0  0  0  0  0  0  0  0  0  0
   -0.8250   -1.2741    0.0000 C   0  0  0  0  0  0  0  0  0  0  0  0
   -0.0000   -0.4491    0.0000 C   0  0  0  0  0  0  0  0  0  0  0  0
   -0.7145   -0.0366    0.0000 C   0  0  0  0  0  0  0  0  0  0  0  0
   -0.7145    0.7884    0.0000 C   0  0  0  0  0  0  0  0  0  0  0  0
    0.0000    1.2009    0.0000 C   0  0  0  0  0  0  0  0  0  0  0  0
   -0.5303    1.8329    0.0000 O   0  0  0  0  0  0  0  0  0  0  0  0
    0.5303    1.8329    0.0000 C   0  0  0  0  0  0  0  0  0  0  0  0
    0.7145    0.7884    0.0000 C   0  0  0  0  0  0  0  0  0  0  0  0
    0.7145   -0.0366    0.0000 C   0  0  0  0  0  0  0  0  0  0  0  0
    3.1821    0.0000    0.0000 O   0  0  0  0  0  0  0  0  0  0  0  0
  1  2  1  0  0  0  0
  2  3  1  0  0  0  0
  2  4  1  0  0  0  0
  2  5  1  0  0  0  0
  5  6  1  0  0  0  0
  6  7  1  0  0  0  0
  7  8  1  0  0  0  0
  8  9  1  0  0  0  0
  8 10  1  0  0  0  0
  8 11  1  0  0  0  0
 11 12  1  0  0  0  0
  5 12  1  0  0  0  0
M  END
>  <Name>
Terpin Monohydrate

>  <CAS>
2451-01-6

>  <Formula>
C10H22O3

>  <MolWt>
190.29 

>  <Bioactivity>
Terpin hydrate is an expectorant, commonly used to loosen mucus in patients presenting with acute or chronic bronchitis, and related conditions. It is derived from sources such as oil of turpentine, oregano, thyme and eucalyptus. Though it was quite popular in the USA since the late nineteenth century, it was banned by the U.S. Food and Drug Administration (FDA) in the 1990s due to lack of proof of efficacy. 

>  <Pathways>
Others

>  <Target>
Others

>  <Receptor>
Others

>  <Reference>
1. Bull Am Pharm Assoc. 1946 Mar-Apr;14:41.

$$$$
577-11-7
  Mrv1561503291623562D          

 29 27  0  0  0  0            999 V2000
    5.3835    6.0703    0.0000 C   0  0  0  0  0  0  0  0  0  0  0  0
    4.5826    5.8721    0.0000 C   0  0  0  0  0  0  0  0  0  0  0  0
    4.0106    6.4666    0.0000 C   0  0  0  0  0  0  0  0  0  0  0  0
    3.2097    6.2684    0.0000 O   0  0  0  0  0  0  0  0  0  0  0  0
    2.6377    6.8629    0.0000 C   0  0  0  0  0  0  0  0  0  0  0  0
    1.8369    6.6647    0.0000 C   0  0  0  0  0  0  0  0  0  0  0  0
    1.2648    7.2592    0.0000 C   0  0  0  0  0  0  0  0  0  0  0  0
    0.4640    7.0610    0.0000 C   0  0  0  0  0  0  0  0  0  0  0  0
   -0.1081    7.6555    0.0000 C   0  0  0  0  0  0  0  0  0  0  0  0
   -0.9089    7.4574    0.0000 C   0  0  0  0  0  0  0  0  0  0  0  0
    1.6080    5.8721    0.0000 C   0  0  0  0  0  0  0  0  0  0  0  0
    0.8072    5.6739    0.0000 C   0  0  0  0  0  0  0  0  0  0  0  0
    4.2394    7.2592    0.0000 O   0  0  0  0  0  0  0  0  0  0  0  0
    4.3538    5.0795    0.0000 S   0  0  0  0  0  0  0  0  0  0  0  0
    3.5612    5.3083    0.0000 O   0  0  0  0  0  0  0  0  0  0  0  0
    5.1464    4.8506    0.0000 O   0  0  0  0  0  0  0  0  0  0  0  0
    4.1250    4.2868    0.0000 O   0  5  0  0  0  0  0  0  0  0  0  0
    5.9555    5.4758    0.0000 C   0  0  0  0  0  0  0  0  0  0  0  0
    6.7564    5.6739    0.0000 O   0  0  0  0  0  0  0  0  0  0  0  0
    7.3284    5.0795    0.0000 C   0  0  0  0  0  0  0  0  0  0  0  0
    8.1292    5.2776    0.0000 C   0  0  0  0  0  0  0  0  0  0  0  0
    8.7013    4.6831    0.0000 C   0  0  0  0  0  0  0  0  0  0  0  0
    9.5021    4.8813    0.0000 C   0  0  0  0  0  0  0  0  0  0  0  0
   10.0742    4.2868    0.0000 C   0  0  0  0  0  0  0  0  0  0  0  0
   10.8750    4.4850    0.0000 C   0  0  0  0  0  0  0  0  0  0  0  0
    8.3581    6.0703    0.0000 C   0  0  0  0  0  0  0  0  0  0  0  0
    9.1589    6.2684    0.0000 C   0  0  0  0  0  0  0  0  0  0  0  0
    5.7267    4.6831    0.0000 O   0  0  0  0  0  0  0  0  0  0  0  0
    3.8962    3.4942    0.0000 Na  0  3  0  0  0  0  0  0  0  0  0  0
  1  2  1  0  0  0  0
  2  3  1  0  0  0  0
  3  4  1  0  0  0  0
  4  5  1  0  0  0  0
  5  6  1  0  0  0  0
  6  7  1  0  0  0  0
  7  8  1  0  0  0  0
  8  9  1  0  0  0  0
  9 10  1  0  0  0  0
  6 11  1  0  0  0  0
 11 12  1  0  0  0  0
  3 13  2  0  0  0  0
  2 14  1  0  0  0  0
 14 15  2  0  0  0  0
 14 16  2  0  0  0  0
 14 17  1  0  0  0  0
  1 18  1  0  0  0  0
 18 19  1  0  0  0  0
 19 20  1  0  0  0  0
 20 21  1  0  0  0  0
 21 22  1  0  0  0  0
 22 23  1  0  0  0  0
 23 24  1  0  0  0  0
 24 25  1  0  0  0  0
 21 26  1  0  0  0  0
 26 27  1  0  0  0  0
 18 28  2  0  0  0  0
M  CHG  2  17  -1  29   1
M  END
>  <Name>
Docusate sodium

>  <CAS>
577-11-7

>  <Formula>
C20H37NaO7S

>  <MolWt>
444.56 

>  <Bioactivity>
All-purpose surfactant, wetting agent, and solubilizer used in the drug, cosmetics, and food industries. It has also been used in laxatives and as cerumenolytics. It is usually administered as either the calcium, potassium, or sodium salt. 

>  <Pathways>
Neuroscience

>  <Target>
Opioid Receptor

>  <Receptor>
Opioid-induced constipation

>  <Reference>
1. Nader ME, et al. Otolaryngol Head Neck Surg. 2012 Mar;146(3):455-60.

$$$$
100-88-9
  Mrv1561503291623562D          

 11 11  0  0  0  0            999 V2000
   -0.7145    2.8875    0.0000 O   0  0  0  0  0  0  0  0  0  0  0  0
   -0.0000    2.4750    0.0000 S   0  0  0  0  0  0  0  0  0  0  0  0
    0.7145    2.0625    0.0000 N   0  0  0  0  0  0  0  0  0  0  0  0
    0.7145    1.2375    0.0000 C   0  0  0  0  0  0  0  0  0  0  0  0
    1.4289    0.8250    0.0000 C   0  0  0  0  0  0  0  0  0  0  0  0
    1.4289    0.0000    0.0000 C   0  0  0  0  0  0  0  0  0  0  0  0
    0.7145   -0.4125    0.0000 C   0  0  0  0  0  0  0  0  0  0  0  0
    0.0000   -0.0000    0.0000 C   0  0  0  0  0  0  0  0  0  0  0  0
    0.0000    0.8250    0.0000 C   0  0  0  0  0  0  0  0  0  0  0  0
   -0.4125    1.7605    0.0000 O   0  0  0  0  0  0  0  0  0  0  0  0
    0.4125    3.1895    0.0000 O   0  0  0  0  0  0  0  0  0  0  0  0
  1  2  2  0  0  0  0
  2  3  1  0  0  0  0
  3  4  1  0  0  0  0
  4  5  1  0  0  0  0
  5  6  1  0  0  0  0
  6  7  1  0  0  0  0
  7  8  1  0  0  0  0
  8  9  1  0  0  0  0
  4  9  1  0  0  0  0
  2 10  1  0  0  0  0
  2 11  2  0  0  0  0
M  END
>  <Name>
Cyclamic acid

>  <CAS>
100-88-9

>  <Formula>
C6H13NO3S

>  <MolWt>
179.23 

>  <Bioactivity>
Cyclamic acid in the form of its sodium or calcium salt is one of the most widely used artificial sweeteners.

>  <Pathways>
Others

>  <Target>
Others

>  <Receptor>
Others

>  <Reference>
1. Leban I, et al. Acta Crystallogr B. 2007 Jun;63(Pt 3):418-25.

$$$$
2078-54-8
  Mrv1561503291623562D          

 13 13  0  0  0  0            999 V2000
    1.4289    0.8250    0.0000 C   0  0  0  0  0  0  0  0  0  0  0  0
    1.4289    0.0000    0.0000 C   0  0  0  0  0  0  0  0  0  0  0  0
    0.7145   -0.4125    0.0000 C   0  0  0  0  0  0  0  0  0  0  0  0
   -0.0000    0.0000    0.0000 C   0  0  0  0  0  0  0  0  0  0  0  0
   -0.0000    0.8250    0.0000 C   0  0  0  0  0  0  0  0  0  0  0  0
    0.7145    1.2375    0.0000 C   0  0  0  0  0  0  0  0  0  0  0  0
    0.7145    2.0625    0.0000 C   0  0  0  0  0  0  0  0  0  0  0  0
    1.4289    2.4750    0.0000 C   0  0  0  0  0  0  0  0  0  0  0  0
    0.0000    2.4750    0.0000 C   0  0  0  0  0  0  0  0  0  0  0  0
   -0.7145    1.2375    0.0000 O   0  0  0  0  0  0  0  0  0  0  0  0
   -0.7145   -0.4125    0.0000 C   0  0  0  0  0  0  0  0  0  0  0  0
   -0.7145   -1.2375    0.0000 C   0  0  0  0  0  0  0  0  0  0  0  0
   -1.4289    0.0000    0.0000 C   0  0  0  0  0  0  0  0  0  0  0  0
  1  2  2  0  0  0  0
  2  3  1  0  0  0  0
  3  4  2  0  0  0  0
  4  5  1  0  0  0  0
  5  6  2  0  0  0  0
  1  6  1  0  0  0  0
  6  7  1  0  0  0  0
  7  8  1  0  0  0  0
  7  9  1  0  0  0  0
  5 10  1  0  0  0  0
  4 11  1  0  0  0  0
 11 12  1  0  0  0  0
 11 13  1  0  0  0  0
M  END
>  <Name>
Propofol

>  <CAS>
2078-54-8

>  <Formula>
C12H18O

>  <MolWt>
178.28 

>  <Bioactivity>
Propofol is an intravenous anaesthetic agent used for induction and maintenance of general anaesthesia. IV administration of propfol is used to induce unconsciousness after which anaesthesia may be maintained using a combination of medications. Recovery from propofol-induced anaesthesia is generally rapid and associated with less frequent side effects than with thiopental, methohexital, and etomidate. Propofol may be used prior to diagnostic procedures requiring anaesthesia, in the management of refractory status epilepticus, and for induction and/or maintenance of anaesthesia prior to and during surgeries.

>  <Pathways>
Membrane Transporter/Ion Channel; Neuroscience

>  <Target>
GABAR potentiator;Sodium Channel inhibitor

>  <Receptor>
GABAR;Sodium channel

>  <Reference>
1. Franks NP. Br J Pharmacol. 2006 Jan;147 Suppl 1:S72-81. 

$$$$
536-43-6
  Mrv1561503291623562D          

 23 22  0  0  0  0            999 V2000
    0.4125    0.0000    0.0000 H   0  3  0  0  0  0  0  0  0  0  0  0
    7.0565   -1.2179    0.0000 C   0  0  0  0  0  0  0  0  0  0  0  0
    6.3420   -0.8054    0.0000 C   0  0  0  0  0  0  0  0  0  0  0  0
    5.6275   -1.2179    0.0000 C   0  0  0  0  0  0  0  0  0  0  0  0
    5.6275   -2.0429    0.0000 O   0  0  0  0  0  0  0  0  0  0  0  0
    4.9131   -0.8054    0.0000 C   0  0  0  0  0  0  0  0  0  0  0  0
    4.9131    0.0196    0.0000 C   0  0  0  0  0  0  0  0  0  0  0  0
    4.1986    0.4321    0.0000 N   0  0  0  0  0  0  0  0  0  0  0  0
    3.4841    0.0196    0.0000 C   0  0  0  0  0  0  0  0  0  0  0  0
    2.7696    0.4321    0.0000 C   0  0  0  0  0  0  0  0  0  0  0  0
    2.7696    1.2571    0.0000 C   0  0  0  0  0  0  0  0  0  0  0  0
    3.4841    1.6696    0.0000 C   0  0  0  0  0  0  0  0  0  0  0  0
    4.1986    1.2571    0.0000 C   0  0  0  0  0  0  0  0  0  0  0  0
    6.3420    0.0196    0.0000 C   0  0  0  0  0  0  0  0  0  0  0  0
    7.0565    0.4321    0.0000 C   0  0  0  0  0  0  0  0  0  0  0  0
    7.7709    0.0196    0.0000 C   0  0  0  0  0  0  0  0  0  0  0  0
    7.7709   -0.8054    0.0000 C   0  0  0  0  0  0  0  0  0  0  0  0
    8.4854    0.4321    0.0000 O   0  0  0  0  0  0  0  0  0  0  0  0
    9.1999    0.0196    0.0000 C   0  0  0  0  0  0  0  0  0  0  0  0
    9.9144    0.4321    0.0000 C   0  0  0  0  0  0  0  0  0  0  0  0
   10.6288    0.0196    0.0000 C   0  0  0  0  0  0  0  0  0  0  0  0
   11.3433    0.4321    0.0000 C   0  0  0  0  0  0  0  0  0  0  0  0
   -0.4125    0.0000    0.0000 Cl  0  5  0  0  0  0  0  0  0  0  0  0
  2  3  2  0  0  0  0
  3  4  1  0  0  0  0
  4  5  2  0  0  0  0
  4  6  1  0  0  0  0
  6  7  1  0  0  0  0
  7  8  1  0  0  0  0
  8  9  1  0  0  0  0
  9 10  1  0  0  0  0
 10 11  1  0  0  0  0
 11 12  1  0  0  0  0
 12 13  1  0  0  0  0
  8 13  1  0  0  0  0
  3 14  1  0  0  0  0
 14 15  2  0  0  0  0
 15 16  1  0  0  0  0
 16 17  2  0  0  0  0
  2 17  1  0  0  0  0
 16 18  1  0  0  0  0
 18 19  1  0  0  0  0
 19 20  1  0  0  0  0
 20 21  1  0  0  0  0
 21 22  1  0  0  0  0
M  CHG  2   1   1  23  -1
M  END
>  <Name>
Dyclonine HCl

>  <CAS>
536-43-6

>  <Formula>
C18H27NO2.HCl

>  <MolWt>
325.87 

>  <Bioactivity>
Dyclonine is an oral anaesthetic found in Sucrets, an over the counter throat lozenge.

>  <Pathways>
Membrane Transporter/Ion Channel

>  <Target>
Sodium Channel inhibitor

>  <Receptor>
Sodium Channel

>  <Reference>
1. Tella SR, Goldberg SR. Pharmacol Biochem Behav. 1998 Feb;59(2):305-12.

$$$$
90-33-5
  Mrv1561503291623562D          

 13 14  0  0  0  0            999 V2000
    0.0000   -1.6500    0.0000 C   0  0  0  0  0  0  0  0  0  0  0  0
    0.7145   -1.2375    0.0000 C   0  0  0  0  0  0  0  0  0  0  0  0
    0.7145   -0.4125    0.0000 C   0  0  0  0  0  0  0  0  0  0  0  0
   -0.0000    0.0000    0.0000 C   0  0  0  0  0  0  0  0  0  0  0  0
   -0.7145   -0.4125    0.0000 C   0  0  0  0  0  0  0  0  0  0  0  0
   -0.7145   -1.2375    0.0000 C   0  0  0  0  0  0  0  0  0  0  0  0
   -1.4289   -1.6500    0.0000 O   0  0  0  0  0  0  0  0  0  0  0  0
    1.4289    0.0000    0.0000 C   0  0  0  0  0  0  0  0  0  0  0  0
    2.1434   -0.4125    0.0000 C   0  0  0  0  0  0  0  0  0  0  0  0
    2.1434   -1.2375    0.0000 C   0  0  0  0  0  0  0  0  0  0  0  0
    1.4289   -1.6500    0.0000 O   0  0  0  0  0  0  0  0  0  0  0  0
    2.8579   -1.6500    0.0000 O   0  0  0  0  0  0  0  0  0  0  0  0
    1.4289    0.8250    0.0000 C   0  0  0  0  0  0  0  0  0  0  0  0
  1  2  2  0  0  0  0
  2  3  1  0  0  0  0
  3  4  2  0  0  0  0
  4  5  1  0  0  0  0
  5  6  2  0  0  0  0
  1  6  1  0  0  0  0
  6  7  1  0  0  0  0
  3  8  1  0  0  0  0
  8  9  2  0  0  0  0
  9 10  1  0  0  0  0
 10 11  1  0  0  0  0
  2 11  1  0  0  0  0
 10 12  2  0  0  0  0
  8 13  1  0  0  0  0
M  END
>  <Name>
4-Methylumbelliferone (4-MU)

>  <CAS>
90-33-5

>  <Formula>
C10H8O3

>  <MolWt>
176.17 

>  <Bioactivity>
A coumarin derivative possessing properties as a spasmolytic, choleretic and light-protective agent. It is also used in ANALYTICAL CHEMISTRY TECHNIQUES for the determination of NITRIC ACID. 

>  <Pathways>
Enzyme

>  <Target>
HAS inhibitor

>  <Receptor>
ASST

>  <Reference>
1. Berman HM, et al. Nucleic Acids Res. 2000 Jan 1;28(1):235-42. 

$$$$
665-66-7
  Mrv1561503291623562D          

 13 13  0  0  0  0            999 V2000
   -0.2452   -0.3561    0.0000 C   0  0  0  0  0  0  0  0  0  0  0  0
   -0.2452   -1.1811    0.0000 N   0  0  0  0  0  0  0  0  0  0  0  0
   -0.9806   -0.7298    0.0000 C   0  0  0  0  0  0  0  0  0  0  0  0
   -0.5312    0.0605    0.0000 C   0  0  0  0  0  0  0  0  0  0  0  0
   -0.5312    0.8079    0.0000 C   0  0  0  0  0  0  0  0  0  0  0  0
    0.2043    1.1816    0.0000 C   0  0  0  0  0  0  0  0  0  0  0  0
   -0.2452    0.3913    0.0000 C   0  0  0  0  0  0  0  0  0  0  0  0
    0.9399    0.8079    0.0000 C   0  0  0  0  0  0  0  0  0  0  0  0
    0.9399    0.0605    0.0000 C   0  0  0  0  0  0  0  0  0  0  0  0
    0.4904   -0.7298    0.0000 C   0  0  0  0  0  0  0  0  0  0  0  0
    0.2043   -0.3132    0.0000 C   0  0  0  0  0  0  0  0  0  0  0  0
    4.1220    0.0000    0.0000 H   0  3  0  0  0  0  0  0  0  0  0  0
    3.2970    0.0000    0.0000 Cl  0  5  0  0  0  0  0  0  0  0  0  0
  1  2  1  0  0  0  0
  1  3  1  0  0  0  0
  3  4  1  0  0  0  0
  4 11  1  0  0  0  0
  5  6  1  0  0  0  0
  6  7  1  0  0  0  0
  9 11  1  0  0  0  0
  6  8  1  0  0  0  0
  1 10  1  0  0  0  0
  9 10  1  0  0  0  0
  8  9  1  0  0  0  0
  1  7  1  0  0  0  0
  4  5  1  0  0  0  0
M  CHG  2  12   1  13  -1
M  END
>  <Name>
Amantadine HCl

>  <CAS>
665-66-7

>  <Formula>
C10H18ClN

>  <MolWt>
187.71 

>  <Bioactivity>
An antiviral that is used in the prophylactic or symptomatic treatment of influenza A. It is also used as an antiparkinsonian agent, to treat extrapyramidal reactions, and for postherpetic neuralgia. The mechanisms of its effects in movement disorders are not well understood but probably reflect an increase in synthesis and release of dopamine, with perhaps some inhibition of dopamine uptake. 

>  <Pathways>
Neuroscience

>  <Target>
Dopamine Receptor

>  <Receptor>
Dopamine receptor

>  <Reference>
1. Wallbank AM, et al. Science. 1966 Jun 24;152(3730):1760-1.

$$$$
1641-17-4
  Mrv1561503291623562D          

 18 19  0  0  0  0            999 V2000
   -0.0000   -1.6500    0.0000 C   0  0  0  0  0  0  0  0  0  0  0  0
   -0.0000   -2.4750    0.0000 C   0  0  0  0  0  0  0  0  0  0  0  0
   -0.7145   -2.8875    0.0000 C   0  0  0  0  0  0  0  0  0  0  0  0
   -1.4289   -2.4750    0.0000 C   0  0  0  0  0  0  0  0  0  0  0  0
   -1.4289   -1.6500    0.0000 C   0  0  0  0  0  0  0  0  0  0  0  0
   -0.7145   -1.2375    0.0000 C   0  0  0  0  0  0  0  0  0  0  0  0
   -0.7145   -0.4125    0.0000 C   0  0  0  0  0  0  0  0  0  0  0  0
   -1.4289    0.0000    0.0000 C   0  0  0  0  0  0  0  0  0  0  0  0
   -2.1434   -0.4125    0.0000 C   0  0  0  0  0  0  0  0  0  0  0  0
   -2.8579    0.0000    0.0000 C   0  0  0  0  0  0  0  0  0  0  0  0
   -2.8579    0.8250    0.0000 C   0  0  0  0  0  0  0  0  0  0  0  0
   -2.1434    1.2375    0.0000 C   0  0  0  0  0  0  0  0  0  0  0  0
   -1.4289    0.8250    0.0000 C   0  0  0  0  0  0  0  0  0  0  0  0
   -3.5724    1.2375    0.0000 C   0  0  0  0  0  0  0  0  0  0  0  0
    0.0000    0.0000    0.0000 O   0  0  0  0  0  0  0  0  0  0  0  0
   -2.1434   -1.2375    0.0000 O   0  0  0  0  0  0  0  0  0  0  0  0
   -0.7145   -3.7125    0.0000 O   0  0  0  0  0  0  0  0  0  0  0  0
   -0.0000   -4.1250    0.0000 C   0  0  0  0  0  0  0  0  0  0  0  0
  1  2  2  0  0  0  0
  2  3  1  0  0  0  0
  3  4  2  0  0  0  0
  4  5  1  0  0  0  0
  5  6  2  0  0  0  0
  1  6  1  0  0  0  0
  6  7  1  0  0  0  0
  7  8  1  0  0  0  0
  8  9  2  0  0  0  0
  9 10  1  0  0  0  0
 10 11  2  0  0  0  0
 11 12  1  0  0  0  0
 12 13  2  0  0  0  0
  8 13  1  0  0  0  0
 11 14  1  0  0  0  0
  7 15  2  0  0  0  0
  5 16  1  0  0  0  0
  3 17  1  0  0  0  0
 17 18  1  0  0  0  0
M  END
>  <Name>
Mexenone

>  <CAS>
1641-17-4

>  <Formula>
C15H14O3

>  <MolWt>
242.28 

>  <Bioactivity>
Mexenone (Uvistat, benzophenone-10) is a benzophenone-derived sunscreening agent.

>  <Pathways>
Others

>  <Target>
Others

>  <Receptor>
Others

>  <Reference>
1. Torres V, Correia T. Contact Dermatitis. 1991 Aug;25(2):126-7.

$$$$
T0020
  Mrv1561503291623562D          

 14 11  0  0  0  0            999 V2000
    0.7145    0.2062    0.0000 C   0  0  0  0  0  0  0  0  0  0  0  0
    0.0000   -0.2062    0.0000 C   0  0  0  0  0  0  0  0  0  0  0  0
   -0.7145    0.2062    0.0000 C   0  0  0  0  0  0  0  0  0  0  0  0
   -0.7145    1.0312    0.0000 C   0  0  0  0  0  0  0  0  0  0  0  0
   -0.0000    1.4437    0.0000 C   0  0  0  0  0  0  0  0  0  0  0  0
    0.7145    1.0312    0.0000 C   0  0  0  0  0  0  0  0  0  0  0  0
    0.0000    2.2687    0.0000 N   0  0  0  0  0  0  0  0  0  0  0  0
   -1.4289   -0.2062    0.0000 O   0  0  0  0  0  0  0  0  0  0  0  0
    0.0000   -1.0312    0.0000 C   0  0  0  0  0  0  0  0  0  0  0  0
    0.7145   -1.4437    0.0000 O   0  5  0  0  0  0  0  0  0  0  0  0
   -0.7145   -1.4437    0.0000 O   0  0  0  0  0  0  0  0  0  0  0  0
    1.4289   -1.8562    0.0000 Na  0  3  0  0  0  0  0  0  0  0  0  0
    3.7861    0.0000    0.0000 O   0  0  0  0  0  0  0  0  0  0  0  0
    0.0000   -3.5062    0.0000 O   0  0  0  0  0  0  0  0  0  0  0  0
  1  2  2  0  0  0  0
  2  3  1  0  0  0  0
  3  4  2  0  0  0  0
  4  5  1  0  0  0  0
  5  6  2  0  0  0  0
  1  6  1  0  0  0  0
  5  7  1  0  0  0  0
  3  8  1  0  0  0  0
  2  9  1  0  0  0  0
  9 10  1  0  0  0  0
  9 11  2  0  0  0  0
M  CHG  2  10  -1  12   1
M  END
>  <Name>
Sodium 4-Aminosalicylate

>  <CAS>
6018-19-5

>  <Formula>
C7H6NNaO3.2H2O

>  <MolWt>
211.15 

>  <Bioactivity>
Sodium 4-Aminosalicylate is an antibiotic used to treat tuberculosis via NF-?B inhibition and free radical scavenging.

>  <Pathways>
Immunology/Inflammation

>  <Target>
NF-?B inhibitor; ROS inhibitor

>  <Receptor>
Free radical scavengers;NF-?B

>  <Reference>
1. Dinis TC, et al. Arch Biochem Biophys, 1994, 315(1), 161-169.

$$$$
T0066
  Mrv1561503291623562D          

 17 18  0  0  0  0            999 V2000
   -0.0000   -1.6500    0.0000 C   0  0  0  0  0  0  0  0  0  0  0  0
   -0.0000   -2.4750    0.0000 C   0  0  0  0  0  0  0  0  0  0  0  0
    0.7145   -2.8875    0.0000 C   0  0  0  0  0  0  0  0  0  0  0  0
    1.4289   -2.4750    0.0000 C   0  0  0  0  0  0  0  0  0  0  0  0
    1.4289   -1.6500    0.0000 C   0  0  0  0  0  0  0  0  0  0  0  0
    0.7145   -1.2375    0.0000 O   0  0  0  0  0  0  0  0  0  0  0  0
    2.1434   -1.2375    0.0000 C   0  0  0  0  0  0  0  0  0  0  0  0
    2.8579   -1.6500    0.0000 C   0  0  0  0  0  0  0  0  0  0  0  0
    2.8579   -2.4750    0.0000 C   0  0  0  0  0  0  0  0  0  0  0  0
    2.1434   -2.8875    0.0000 C   0  0  0  0  0  0  0  0  0  0  0  0
    3.5724   -2.8875    0.0000 Cl  0  0  0  0  0  0  0  0  0  0  0  0
   -0.7145   -2.8875    0.0000 C   0  0  0  0  0  0  0  0  0  0  0  0
   -1.4289   -2.4750    0.0000 C   0  0  0  0  0  0  0  0  0  0  0  0
   -1.4289   -1.6500    0.0000 C   0  0  0  0  0  0  0  0  0  0  0  0
   -0.7145   -1.2375    0.0000 C   0  0  0  0  0  0  0  0  0  0  0  0
   -0.7145   -0.4125    0.0000 Cl  0  0  0  0  0  0  0  0  0  0  0  0
   -0.7145   -3.7125    0.0000 O   0  0  0  0  0  0  0  0  0  0  0  0
  1  2  2  0  0  0  0
  2  3  1  0  0  0  0
  3  4  1  0  0  0  0
  4  5  2  0  0  0  0
  5  6  1  0  0  0  0
  5  7  1  0  0  0  0
  7  8  2  0  0  0  0
  8  9  1  0  0  0  0
  9 10  2  0  0  0  0
  4 10  1  0  0  0  0
  9 11  1  0  0  0  0
  2 12  1  0  0  0  0
 12 13  2  0  0  0  0
 13 14  1  0  0  0  0
 14 15  2  0  0  0  0
  1 15  1  0  0  0  0
 15 16  1  0  0  0  0
 12 17  1  0  0  0  0
M  END
>  <Name>
Dichlorophen

>  <CAS>
97-23-4

>  <Formula>
C13H10Cl2O2

>  <MolWt>
269.13 

>  <Bioactivity>
Nontoxic laxative vermicide effective for taenia infestation. It tends to produce colic and nausea. It is also used as a veterinary fungicide, anthelmintic, and antiprotozoan. (From Merck, 11th ed.) 

>  <Pathways>
Microbiology & Virology

>  <Target>
Antibiotic

>  <Receptor>
Others

>  <Reference>
1. Langrand J, et al. Clin Toxicol (Phila). 2013 Mar;51(3):178-81.

$$$$
2398-81-4
  Mrv1561503291623562D          

 10 10  0  0  0  0            999 V2000
    1.4289    0.8250    0.0000 C   0  5  0  0  0  0  0  0  0  0  0  0
    1.4289    0.0000    0.0000 C   0  0  0  0  0  0  0  0  0  0  0  0
    0.7145   -0.4125    0.0000 C   0  0  0  0  0  0  0  0  0  0  0  0
   -0.0000    0.0000    0.0000 C   0  0  0  0  0  0  0  0  0  0  0  0
   -0.0000    0.8250    0.0000 C   0  0  0  0  0  0  0  0  0  0  0  0
    0.7145    1.2375    0.0000 N   0  2  0  0  0  4  0  0  0  0  0  0
    0.7145    2.0625    0.0000 O   0  5  0  0  0  0  0  0  0  0  0  0
   -0.7145   -0.4125    0.0000 C   0  0  0  0  0  0  0  0  0  0  0  0
   -0.7145   -1.2375    0.0000 O   0  0  0  0  0  0  0  0  0  0  0  0
   -1.4289    0.0000    0.0000 O   0  0  0  0  0  0  0  0  0  0  0  0
  1  2  1  0  0  0  0
  2  3  2  0  0  0  0
  3  4  1  0  0  0  0
  4  5  2  0  0  0  0
  5  6  1  0  0  0  0
  1  6  1  0  0  0  0
  6  7  1  0  0  0  0
  4  8  1  0  0  0  0
  8  9  2  0  0  0  0
  8 10  1  0  0  0  0
M  CHG  3   1  -1   6   2   7  -1
M  END
>  <Name>
Oxiniacic Acid

>  <CAS>
2398-81-4

>  <Formula>
C6H5NO3

>  <MolWt>
139.11 

>  <Bioactivity>
Compounds useful for inhibition of farnesyl protein transferase [US6689789]

>  <Pathways>
Others

>  <Target>
Others

>  <Receptor>
Others

>  <Reference>
1. Atac A, et al. Spectrochim Acta A Mol Biomol Spectrosc. 2012 Jan;85(1):145-54.

$$$$
7491-74-9
  Mrv1561503291623562D          

 10 10  0  0  0  0            999 V2000
    0.5678    1.9393    0.0000 C   0  0  0  0  0  0  0  0  0  0  0  0
    0.5678    1.1143    0.0000 N   0  0  0  0  0  0  0  0  0  0  0  0
    1.2352    0.6294    0.0000 C   0  0  0  0  0  0  0  0  0  0  0  0
    0.9803   -0.1553    0.0000 C   0  0  0  0  0  0  0  0  0  0  0  0
    0.1553   -0.1553    0.0000 C   0  0  0  0  0  0  0  0  0  0  0  0
   -0.0997    0.6294    0.0000 C   0  0  0  0  0  0  0  0  0  0  0  0
    2.0198    0.8843    0.0000 O   0  0  0  0  0  0  0  0  0  0  0  0
    1.2822    2.3518    0.0000 C   0  0  0  0  0  0  0  0  0  0  0  0
    1.2822    3.1768    0.0000 N   0  0  0  0  0  0  0  0  0  0  0  0
    1.9967    1.9393    0.0000 O   0  0  0  0  0  0  0  0  0  0  0  0
  1  2  1  0  0  0  0
  2  3  1  0  0  0  0
  3  4  1  0  0  0  0
  4  5  1  0  0  0  0
  5  6  1  0  0  0  0
  2  6  1  0  0  0  0
  3  7  2  0  0  0  0
  1  8  1  0  0  0  0
  8  9  1  0  0  0  0
  8 10  2  0  0  0  0
M  END
>  <Name>
Piracetam

>  <CAS>
7491-74-9

>  <Formula>
C6H10N2O2

>  <MolWt>
142.16 

>  <Bioactivity>
Piracetam is a cyclic derivative of the neurotransmitter gamma-aminobutyric acid (GABA), used in treatment of a wide range of cognitive disorders.

>  <Pathways>
Neuroscience

>  <Target>
GluR agonist

>  <Receptor>
AMPA receptor

>  <Reference>
1. Mingeot-Leclercq MP, et al. Biochim Biophys Acta, 2003, 1609(1), 28-38.

$$$$
94-20-2
  Mrv1561503291623562D          

 17 17  0  0  0  0            999 V2000
    1.4289   -0.0000    0.0000 C   0  0  0  0  0  0  0  0  0  0  0  0
    0.7145   -0.4125    0.0000 C   0  0  0  0  0  0  0  0  0  0  0  0
    0.7145   -1.2375    0.0000 S   0  0  0  0  0  0  0  0  0  0  0  0
    0.7145   -2.0625    0.0000 N   0  0  0  0  0  0  0  0  0  0  0  0
    1.4289   -2.4750    0.0000 C   0  0  0  0  0  0  0  0  0  0  0  0
    1.4289   -3.3000    0.0000 N   0  0  0  0  0  0  0  0  0  0  0  0
    2.1434   -3.7125    0.0000 C   0  0  0  0  0  0  0  0  0  0  0  0
    2.1434   -4.5375    0.0000 C   0  0  0  0  0  0  0  0  0  0  0  0
    2.8579   -4.9500    0.0000 C   0  0  0  0  0  0  0  0  0  0  0  0
    2.1434   -2.0625    0.0000 O   0  0  0  0  0  0  0  0  0  0  0  0
    1.5395   -1.2375    0.0000 O   0  0  0  0  0  0  0  0  0  0  0  0
   -0.1105   -1.2375    0.0000 O   0  0  0  0  0  0  0  0  0  0  0  0
   -0.0000   -0.0000    0.0000 C   0  0  0  0  0  0  0  0  0  0  0  0
   -0.0000    0.8250    0.0000 C   0  0  0  0  0  0  0  0  0  0  0  0
    0.7145    1.2375    0.0000 C   0  0  0  0  0  0  0  0  0  0  0  0
    1.4289    0.8250    0.0000 C   0  0  0  0  0  0  0  0  0  0  0  0
    0.7145    2.0625    0.0000 Cl  0  0  0  0  0  0  0  0  0  0  0  0
  1  2  2  0  0  0  0
  2  3  1  0  0  0  0
  3  4  1  0  0  0  0
  4  5  1  0  0  0  0
  5  6  1  0  0  0  0
  6  7  1  0  0  0  0
  7  8  1  0  0  0  0
  8  9  1  0  0  0  0
  5 10  2  0  0  0  0
  3 11  2  0  0  0  0
  3 12  2  0  0  0  0
  2 13  1  0  0  0  0
 13 14  2  0  0  0  0
 14 15  1  0  0  0  0
 15 16  2  0  0  0  0
  1 16  1  0  0  0  0
 15 17  1  0  0  0  0
M  END
>  <Name>
Chlorpropamide

>  <CAS>
94-20-2

>  <Formula>
C10H13ClN2O3S

>  <MolWt>
276.74 

>  <Bioactivity>
Chlorpropamide is a sulfonylurea class drug for type 2 diabetes mellitus.


>  <Pathways>
Membrane Transporter/Ion Channel

>  <Target>
ABC inhibitor

>  <Receptor>
ABCC8

>  <Reference>
1. Kichanov SE, et al. J Pharm Sci. 2015 Jan;104(1):81-6. 

$$$$
5086-74-8
  Mrv1561503291623562D          

 16 16  0  0  0  0            999 V2000
    0.4125    0.0000    0.0000 H   0  3  0  0  0  0  0  0  0  0  0  0
    3.5357    0.7145    0.0000 C   0  0  0  0  0  0  0  0  0  0  0  0
    3.9482    0.0000    0.0000 C   0  0  0  0  0  0  0  0  0  0  0  0
    4.7732    0.0000    0.0000 C   0  0  0  0  0  0  0  0  0  0  0  0
    5.2581    0.6674    0.0000 N   0  0  0  0  0  0  0  0  0  0  0  0
    6.0428    0.4125    0.0000 C   0  0  0  0  0  0  0  0  0  0  0  0
    6.8274    0.6674    0.0000 S   0  0  0  0  0  0  0  0  0  0  0  0
    7.3123    0.0000    0.0000 C   0  0  0  0  0  0  0  0  0  0  0  0
    6.8274   -0.6674    0.0000 C   0  0  0  0  0  0  0  0  0  0  0  0
    6.0428   -0.4125    0.0000 N   0  0  0  0  0  0  0  0  0  0  0  0
    5.2581   -0.6674    0.0000 C   0  0  0  0  0  0  0  0  0  0  0  0
    3.5357   -0.7145    0.0000 C   0  0  0  0  0  0  0  0  0  0  0  0
    2.7107   -0.7145    0.0000 C   0  0  0  0  0  0  0  0  0  0  0  0
    2.2982    0.0000    0.0000 C   0  0  0  0  0  0  0  0  0  0  0  0
    2.7107    0.7145    0.0000 C   0  0  0  0  0  0  0  0  0  0  0  0
   -0.4125    0.0000    0.0000 Cl  0  5  0  0  0  0  0  0  0  0  0  0
  2  3  2  0  0  0  0
  3  4  1  0  0  0  0
  4  5  1  0  0  0  0
  5  6  2  0  0  0  0
  6  7  1  0  0  0  0
  7  8  1  0  0  0  0
  8  9  1  0  0  0  0
  9 10  1  0  0  0  0
  6 10  1  0  0  0  0
 10 11  1  0  0  0  0
  4 11  1  0  0  0  0
  3 12  1  0  0  0  0
 12 13  2  0  0  0  0
 13 14  1  0  0  0  0
 14 15  2  0  0  0  0
  2 15  1  0  0  0  0
M  CHG  2   1   1  16  -1
M  END
>  <Name>
Tetramisole HCl

>  <CAS>
5086-74-8

>  <Formula>
C11H12N2S.HCl

>  <MolWt>
240.75 

>  <Bioactivity>
Tetramisole is a mixture of dextro- and levo isomers used as an anthelmintic.

>  <Pathways>
Enzyme

>  <Target>
Dehydrogenase inhibitor

>  <Receptor>
SDH

>  <Reference>
1. Eyre P, et al. J Pharm Pharmacol, 1970, 22(1), 26-36.


$$$$
60-27-5
  Mrv1561503291623562D          

  8  8  0  0  0  0            999 V2000
    0.5678    1.9393    0.0000 C   0  0  0  0  0  0  0  0  0  0  0  0
    0.5678    1.1143    0.0000 N   0  0  0  0  0  0  0  0  0  0  0  0
    1.2352    0.6294    0.0000 C   0  0  0  0  0  0  0  0  0  0  0  0
    0.9803   -0.1553    0.0000 N   0  0  0  0  0  0  0  0  0  0  0  0
    0.1553   -0.1553    0.0000 C   0  0  0  0  0  0  0  0  0  0  0  0
   -0.3297   -0.8227    0.0000 O   0  0  0  0  0  0  0  0  0  0  0  0
   -0.0997    0.6294    0.0000 C   0  0  0  0  0  0  0  0  0  0  0  0
    2.0198    0.8843    0.0000 N   0  0  0  0  0  0  0  0  0  0  0  0
  1  2  1  0  0  0  0
  2  3  1  0  0  0  0
  3  4  2  0  0  0  0
  4  5  1  0  0  0  0
  5  6  2  0  0  0  0
  5  7  1  0  0  0  0
  2  7  1  0  0  0  0
  3  8  1  0  0  0  0
M  END
>  <Name>
Creatinine

>  <CAS>
60-27-5

>  <Formula>
C4H7N3O

>  <MolWt>
113.12 

>  <Bioactivity>
Creatinine is a break-down product of creatine phosphate in muscle, and is usually produced at a fairly constant rate by the body.

>  <Pathways>
Others

>  <Target>
Others

>  <Receptor>
others

>  <Reference>
1. Allen PJ, et al. Neurosci Biobehav Rev, 2012, 36(5), 1442-1462.


$$$$
552-94-3
  Mrv1561503291623562D          

 19 20  0  0  0  0            999 V2000
    0.7145   -2.8875    0.0000 C   0  0  0  0  0  0  0  0  0  0  0  0
    0.7145   -3.7125    0.0000 C   0  0  0  0  0  0  0  0  0  0  0  0
    1.4289   -4.1250    0.0000 C   0  0  0  0  0  0  0  0  0  0  0  0
    2.1434   -3.7125    0.0000 C   0  0  0  0  0  0  0  0  0  0  0  0
    2.1434   -2.8875    0.0000 C   0  0  0  0  0  0  0  0  0  0  0  0
    1.4289   -2.4750    0.0000 C   0  0  0  0  0  0  0  0  0  0  0  0
    1.4289   -1.6500    0.0000 O   0  0  0  0  0  0  0  0  0  0  0  0
    0.7145   -1.2375    0.0000 C   0  0  0  0  0  0  0  0  0  0  0  0
    0.7145   -0.4125    0.0000 C   0  0  0  0  0  0  0  0  0  0  0  0
   -0.0000   -0.0000    0.0000 C   0  0  0  0  0  0  0  0  0  0  0  0
   -0.0000    0.8250    0.0000 C   0  0  0  0  0  0  0  0  0  0  0  0
    0.7145    1.2375    0.0000 C   0  0  0  0  0  0  0  0  0  0  0  0
    1.4289    0.8250    0.0000 C   0  0  0  0  0  0  0  0  0  0  0  0
    1.4289   -0.0000    0.0000 C   0  0  0  0  0  0  0  0  0  0  0  0
   -0.7145   -0.4125    0.0000 O   0  0  0  0  0  0  0  0  0  0  0  0
   -0.0000   -1.6500    0.0000 O   0  0  0  0  0  0  0  0  0  0  0  0
    2.8579   -2.4750    0.0000 C   0  0  0  0  0  0  0  0  0  0  0  0
    3.5724   -2.8875    0.0000 O   0  0  0  0  0  0  0  0  0  0  0  0
    2.8579   -1.6500    0.0000 O   0  0  0  0  0  0  0  0  0  0  0  0
  1  2  2  0  0  0  0
  2  3  1  0  0  0  0
  3  4  2  0  0  0  0
  4  5  1  0  0  0  0
  5  6  2  0  0  0  0
  1  6  1  0  0  0  0
  6  7  1  0  0  0  0
  7  8  1  0  0  0  0
  8  9  1  0  0  0  0
  9 10  2  0  0  0  0
 10 11  1  0  0  0  0
 11 12  2  0  0  0  0
 12 13  1  0  0  0  0
 13 14  2  0  0  0  0
  9 14  1  0  0  0  0
 10 15  1  0  0  0  0
  8 16  2  0  0  0  0
  5 17  1  0  0  0  0
 17 18  1  0  0  0  0
 17 19  2  0  0  0  0
M  END
>  <Name>
Sasapyrine

>  <CAS>
552-94-3

>  <Formula>
C14H10O5

>  <MolWt>
258.23 

>  <Bioactivity>
Salsalate is a nonsteroidal anti-inflammatory agent for oral administration. Salsalate's mode of action as an anti-inflammatory and antirheumatic agent may be due to inhibition of synthesis and release of prostaglandins. The usefulness of salicylic acid, the active in vivo product of salsalate, in the treatment of arthritic disorders has been established. In contrast to aspirin, salsalate causes no greater fecal gastrointestinal blood loss than placebo. Salsalate is readily soluble in the small intestine where it is partially hydrolyzed to two molecules of salicylic acid. A significant portion of the parent compound is absorbed unchanged and undergoes rapid esterase hydrolysis in the body. The parent compound has an elimination half-life of about 1 hour. Salicylic acid (the active metabolite) biotransformation is saturated at anti-inflammatory doses of salsalate. Such capacity limited biotransformation results in an increase in the half-life of salicylic acid from 3.5 to 16 or more hours.  

>  <Pathways>
Neuroscience

>  <Target>
COX

>  <Receptor>
Prostaglandin G/H synthase 1/2

>  <Reference>
1. Stichtenoth DO, et al. Med Klin (Munich). 1998 Jul 15;93(7):407-15.

$$$$
131-57-7
  Mrv1561503291623562D          

 17 18  0  0  0  0            999 V2000
   -0.0000   -1.6500    0.0000 C   0  0  0  0  0  0  0  0  0  0  0  0
   -0.0000   -2.4750    0.0000 C   0  0  0  0  0  0  0  0  0  0  0  0
   -0.7145   -2.8875    0.0000 C   0  0  0  0  0  0  0  0  0  0  0  0
   -1.4289   -2.4750    0.0000 C   0  0  0  0  0  0  0  0  0  0  0  0
   -1.4289   -1.6500    0.0000 C   0  0  0  0  0  0  0  0  0  0  0  0
   -0.7145   -1.2375    0.0000 C   0  0  0  0  0  0  0  0  0  0  0  0
   -0.7145   -0.4125    0.0000 C   0  0  0  0  0  0  0  0  0  0  0  0
    0.0000    0.0000    0.0000 O   0  0  0  0  0  0  0  0  0  0  0  0
   -1.4289    0.0000    0.0000 C   0  0  0  0  0  0  0  0  0  0  0  0
   -2.1434   -0.4125    0.0000 C   0  0  0  0  0  0  0  0  0  0  0  0
   -2.8579    0.0000    0.0000 C   0  0  0  0  0  0  0  0  0  0  0  0
   -2.8579    0.8250    0.0000 C   0  0  0  0  0  0  0  0  0  0  0  0
   -2.1434    1.2375    0.0000 C   0  0  0  0  0  0  0  0  0  0  0  0
   -1.4289    0.8250    0.0000 C   0  0  0  0  0  0  0  0  0  0  0  0
   -2.1434   -1.2375    0.0000 O   0  0  0  0  0  0  0  0  0  0  0  0
   -0.7145   -3.7125    0.0000 O   0  0  0  0  0  0  0  0  0  0  0  0
   -0.0000   -4.1250    0.0000 C   0  0  0  0  0  0  0  0  0  0  0  0
  1  2  2  0  0  0  0
  2  3  1  0  0  0  0
  3  4  2  0  0  0  0
  4  5  1  0  0  0  0
  5  6  2  0  0  0  0
  1  6  1  0  0  0  0
  6  7  1  0  0  0  0
  7  8  2  0  0  0  0
  7  9  1  0  0  0  0
  9 10  2  0  0  0  0
 10 11  1  0  0  0  0
 11 12  2  0  0  0  0
 12 13  1  0  0  0  0
 13 14  2  0  0  0  0
  9 14  1  0  0  0  0
  5 15  1  0  0  0  0
  3 16  1  0  0  0  0
 16 17  1  0  0  0  0
M  END
>  <Name>
Oxybenzone

>  <CAS>
131-57-7

>  <Formula>
C14H12O3

>  <MolWt>
228.24 

>  <Bioactivity>
Oxybenzone is an organic compound used in sunscreens. It is a derivative of benzophenone. It forms colorless crystals that are readily soluble in most organic solvents. It is used as an ingredient in sunscreen and other cosmetics because it absorbs UV-A ultraviolet rays. 

>  <Pathways>
Others

>  <Target>
Others

>  <Receptor>
Others

>  <Reference>
1. Gonzalez H, et al. Br J Dermatol. 2006 Feb;154(2):337-40.

$$$$
T0501
  Mrv1561503291623562D          

  9  9  0  0  0  0            999 V2000
    1.4289   -0.0000    0.0000 C   0  0  0  0  0  0  0  0  0  0  0  0
    0.7145   -0.4125    0.0000 C   0  0  0  0  0  0  0  0  0  0  0  0
    0.7145   -1.2375    0.0000 O   0  0  0  0  0  0  0  0  0  0  0  0
    1.4289   -1.6500    0.0000 C   0  0  0  0  0  0  0  0  0  0  0  0
   -0.0000   -0.0000    0.0000 C   0  0  0  0  0  0  0  0  0  0  0  0
   -0.0000    0.8250    0.0000 C   0  0  0  0  0  0  0  0  0  0  0  0
    0.7145    1.2375    0.0000 C   0  0  0  0  0  0  0  0  0  0  0  0
    1.4289    0.8250    0.0000 C   0  0  0  0  0  0  0  0  0  0  0  0
    0.7145    2.0625    0.0000 O   0  0  0  0  0  0  0  0  0  0  0  0
  1  2  2  0  0  0  0
  2  3  1  0  0  0  0
  3  4  1  0  0  0  0
  2  5  1  0  0  0  0
  5  6  2  0  0  0  0
  6  7  1  0  0  0  0
  7  8  2  0  0  0  0
  1  8  1  0  0  0  0
  7  9  1  0  0  0  0
M  END
>  <Name>
Leucobasal

>  <CAS>
150-76-5

>  <Formula>
C7H8O2

>  <MolWt>
124.14 

>  <Bioactivity>
Mequinol is a Skin Lightening Agent. The mechanism of action of mequinol is as a Melanin Synthesis Inhibitor. The physiologic effect of mequinol is by means of Depigmenting Activity. 

>  <Pathways>
Immunology/Inflammation

>  <Target>
ROS inhibitor

>  <Receptor>
radical polymerization

>  <Reference>
1. Wang YH, et al. J AOAC Int. 2015 Jan-Feb;98(1):5-12. 

$$$$
456-59-7
  Mrv1561503291623562D          

 20 21  0  0  0  0            999 V2000
    3.5724   -2.8875    0.0000 C   0  0  0  0  0  0  0  0  0  0  0  0
    3.5724   -3.7125    0.0000 C   0  0  0  0  0  0  0  0  0  0  0  0
    2.8579   -4.1250    0.0000 C   0  0  0  0  0  0  0  0  0  0  0  0
    2.1434   -3.7125    0.0000 C   0  0  0  0  0  0  0  0  0  0  0  0
    2.1434   -2.8875    0.0000 C   0  0  0  0  0  0  0  0  0  0  0  0
    2.8579   -2.4750    0.0000 C   0  0  0  0  0  0  0  0  0  0  0  0
    2.8579   -1.6500    0.0000 C   0  0  0  0  0  0  0  0  0  0  0  0
    3.5724   -1.2375    0.0000 C   0  0  0  0  0  0  0  0  0  0  0  0
    3.5724   -0.4125    0.0000 O   0  0  0  0  0  0  0  0  0  0  0  0
    4.2868   -0.0000    0.0000 C   0  0  0  0  0  0  0  0  0  0  0  0
    4.2868    0.8250    0.0000 C   0  0  0  0  0  0  0  0  0  0  0  0
    5.0013    1.2375    0.0000 C   0  0  0  0  0  0  0  0  0  0  0  0
    5.7158    0.8250    0.0000 C   0  0  0  0  0  0  0  0  0  0  0  0
    5.7158   -0.0000    0.0000 C   0  0  0  0  0  0  0  0  0  0  0  0
    5.0013   -0.4125    0.0000 C   0  0  0  0  0  0  0  0  0  0  0  0
    6.4302   -0.4125    0.0000 C   0  0  0  0  0  0  0  0  0  0  0  0
    4.6140    1.9659    0.0000 C   0  0  0  0  0  0  0  0  0  0  0  0
    5.3886    1.9659    0.0000 C   0  0  0  0  0  0  0  0  0  0  0  0
    4.2868   -1.6500    0.0000 O   0  0  0  0  0  0  0  0  0  0  0  0
    2.1434   -1.2375    0.0000 O   0  0  0  0  0  0  0  0  0  0  0  0
  1  2  2  0  0  0  0
  2  3  1  0  0  0  0
  3  4  2  0  0  0  0
  4  5  1  0  0  0  0
  5  6  2  0  0  0  0
  1  6  1  0  0  0  0
  6  7  1  0  0  0  0
  7  8  1  0  0  0  0
  8  9  1  0  0  0  0
  9 10  1  0  0  0  0
 10 11  1  0  0  0  0
 11 12  1  0  0  0  0
 12 13  1  0  0  0  0
 13 14  1  0  0  0  0
 14 15  1  0  0  0  0
 10 15  1  0  0  0  0
 14 16  1  0  0  0  0
 12 17  1  0  0  0  0
 12 18  1  0  0  0  0
  8 19  2  0  0  0  0
  7 20  1  0  0  0  0
M  END
>  <Name>
Cyclandelate

>  <CAS>
456-59-7

>  <Formula>
C17H24O3

>  <MolWt>
276.38 

>  <Bioactivity>
A direct-acting smooth muscle relaxant used to dilate blood vessels. It may cause gastrointestinal distress and tachycardia. 

>  <Pathways>
Membrane Transporter/Ion Channel

>  <Target>
Lipid; Calcium Channel inhibitor

>  <Receptor>
ACAT;Calcium Channel

>  <Reference>
1. Middleton B, et al. Drugs, 1987, 33 Suppl 2:75-9.

$$$$
98-79-3
  Mrv1561503291623562D          

  9  9  0  0  0  0            999 V2000
    0.5678    1.9393    0.0000 O   0  0  0  0  0  0  0  0  0  0  0  0
    0.5678    1.1143    0.0000 C   0  0  0  0  0  0  0  0  0  0  0  0
    1.2352    0.6294    0.0000 N   0  0  0  0  0  0  0  0  0  0  0  0
    0.9803   -0.1553    0.0000 C   0  0  0  0  0  0  0  0  0  0  0  0
    0.1553   -0.1553    0.0000 C   0  0  0  0  0  0  0  0  0  0  0  0
   -0.0997    0.6294    0.0000 C   0  0  0  0  0  0  0  0  0  0  0  0
    1.4652   -0.8227    0.0000 C   0  0  0  0  0  0  0  0  0  0  0  0
    2.2857   -0.7365    0.0000 O   0  0  0  0  0  0  0  0  0  0  0  0
    1.1296   -1.5764    0.0000 O   0  0  0  0  0  0  0  0  0  0  0  0
  1  2  2  0  0  0  0
  2  3  1  0  0  0  0
  3  4  1  0  0  0  0
  4  5  1  0  0  0  0
  5  6  1  0  0  0  0
  2  6  1  0  0  0  0
  4  7  1  0  0  0  0
  7  8  1  0  0  0  0
  7  9  2  0  0  0  0
M  END
>  <Name>
L-Pyroglutamic acid

>  <CAS>
98-79-3

>  <Formula>
C5H7NO3

>  <MolWt>
129.11 

>  <Bioactivity>
A cyclized derivative of L-GLUTAMIC ACID. Elevated blood levels may be associated with problems of GLUTAMINE or GLUTATHIONE metabolism. 

>  <Pathways>
Amino Acids & Building Blocks

>  <Target>
Unusual Amino Acids

>  <Receptor>
Unusual Amino Acids

>  <Reference>
1. Imming P, et al. Nat Rev Drug Discov. 2006 Oct; 5(10):821-34. 


$$$$
T0510
  Mrv1561503291623562D          

 14 14  0  0  0  0            999 V2000
    1.4289   -0.0000    0.0000 C   0  0  0  0  0  0  0  0  0  0  0  0
    0.7145   -0.4125    0.0000 C   0  0  0  0  0  0  0  0  0  0  0  0
    0.7145   -1.2375    0.0000 S   0  0  0  0  0  0  0  0  0  0  0  0
    1.5395   -1.2375    0.0000 O   0  0  0  0  0  0  0  0  0  0  0  0
   -0.1105   -1.2375    0.0000 O   0  0  0  0  0  0  0  0  0  0  0  0
    0.7145   -2.0625    0.0000 N   0  0  0  0  0  0  0  0  0  0  0  0
    1.4289   -2.4750    0.0000 C   0  0  0  0  0  0  0  0  0  0  0  0
    1.4289   -3.3000    0.0000 N   0  0  0  0  0  0  0  0  0  0  0  0
    2.1434   -2.0625    0.0000 N   0  0  0  0  0  0  0  0  0  0  0  0
   -0.0000   -0.0000    0.0000 C   0  0  0  0  0  0  0  0  0  0  0  0
   -0.0000    0.8250    0.0000 C   0  0  0  0  0  0  0  0  0  0  0  0
    0.7145    1.2375    0.0000 C   0  0  0  0  0  0  0  0  0  0  0  0
    1.4289    0.8250    0.0000 C   0  0  0  0  0  0  0  0  0  0  0  0
    0.7145    2.0625    0.0000 N   0  0  0  0  0  0  0  0  0  0  0  0
  1  2  2  0  0  0  0
  2  3  1  0  0  0  0
  3  4  2  0  0  0  0
  3  5  2  0  0  0  0
  3  6  1  0  0  0  0
  6  7  2  0  0  0  0
  7  8  1  0  0  0  0
  7  9  1  0  0  0  0
  2 10  1  0  0  0  0
 10 11  2  0  0  0  0
 11 12  1  0  0  0  0
 12 13  2  0  0  0  0
  1 13  1  0  0  0  0
 12 14  1  0  0  0  0
M  END
>  <Name>
Sulfaguanidine

>  <CAS>
57-67-0

>  <Formula>
C7H10N4O2S

>  <MolWt>
214.25 

>  <Bioactivity>
Sulfaguanidine is a sulfonamide used as an anti-infective agent.

>  <Pathways>
Enzyme

>  <Target>
DHPS inhibitor

>  <Receptor>
DHPS

>  <Reference>
1. Mizuno N, et al. J Pharmacobiodyn. 1986, 9(10), 787-792.

$$$$
83-12-5
  Mrv1561503291623562D          

 17 19  0  0  0  0            999 V2000
   -1.8659   -1.4124    0.0000 C   0  0  0  0  0  0  0  0  0  0  0  0
   -2.6909   -1.4124    0.0000 C   0  0  0  0  0  0  0  0  0  0  0  0
   -3.1034   -0.6979    0.0000 C   0  0  0  0  0  0  0  0  0  0  0  0
   -2.6909    0.0165    0.0000 C   0  0  0  0  0  0  0  0  0  0  0  0
   -1.8659    0.0165    0.0000 C   0  0  0  0  0  0  0  0  0  0  0  0
   -1.4534   -0.6979    0.0000 C   0  0  0  0  0  0  0  0  0  0  0  0
   -0.6284   -0.6979    0.0000 C   0  0  0  0  0  0  0  0  0  0  0  0
   -0.1435   -1.3654    0.0000 C   0  0  0  0  0  0  0  0  0  0  0  0
    0.6411   -1.1104    0.0000 C   0  0  0  0  0  0  0  0  0  0  0  0
    0.6411   -0.2854    0.0000 C   0  0  0  0  0  0  0  0  0  0  0  0
   -0.1435   -0.0305    0.0000 C   0  0  0  0  0  0  0  0  0  0  0  0
   -0.3984    0.7541    0.0000 O   0  0  0  0  0  0  0  0  0  0  0  0
    1.3556    0.1271    0.0000 C   0  0  0  0  0  0  0  0  0  0  0  0
    2.0701   -0.2854    0.0000 C   0  0  0  0  0  0  0  0  0  0  0  0
    2.0701   -1.1104    0.0000 C   0  0  0  0  0  0  0  0  0  0  0  0
    1.3556   -1.5229    0.0000 C   0  0  0  0  0  0  0  0  0  0  0  0
   -0.3984   -2.1500    0.0000 O   0  0  0  0  0  0  0  0  0  0  0  0
  1  2  2  0  0  0  0
  2  3  1  0  0  0  0
  3  4  2  0  0  0  0
  4  5  1  0  0  0  0
  5  6  2  0  0  0  0
  1  6  1  0  0  0  0
  6  7  1  0  0  0  0
  7  8  1  0  0  0  0
  8  9  1  0  0  0  0
  9 10  2  0  0  0  0
 10 11  1  0  0  0  0
  7 11  1  0  0  0  0
 11 12  2  0  0  0  0
 10 13  1  0  0  0  0
 13 14  2  0  0  0  0
 14 15  1  0  0  0  0
 15 16  2  0  0  0  0
  9 16  1  0  0  0  0
  8 17  2  0  0  0  0
M  END
>  <Name>
Phenylindione

>  <CAS>
83-12-5

>  <Formula>
C15H10O2

>  <MolWt>
222.25 

>  <Bioactivity>
An indandione that has been used as an anticoagulant. Phenindione has actions similar to WARFARIN, but it is now rarely employed because of its higher incidence of severe adverse effects. (From Martindale, The Extra Pharmacopoeia, 30th ed, p234) 

>  <Pathways>
Enzyme

>  <Target>
VKOR inhibitor

>  <Receptor>
VKOR complex subunit 1

>  <Reference>
1. Mentre F, et al. Clin Pharmacol Ther. 1998 Jan;63(1):64-78. 

$$$$
120-51-4
  Mrv1561503291623562D          

 16 17  0  0  0  0            999 V2000
    2.1434   -2.8875    0.0000 C   0  0  0  0  0  0  0  0  0  0  0  0
    2.8579   -2.4750    0.0000 C   0  0  0  0  0  0  0  0  0  0  0  0
    3.5724   -2.8875    0.0000 C   0  0  0  0  0  0  0  0  0  0  0  0
    3.5724   -3.7125    0.0000 C   0  0  0  0  0  0  0  0  0  0  0  0
    2.8579   -4.1250    0.0000 C   0  0  0  0  0  0  0  0  0  0  0  0
    2.1434   -3.7125    0.0000 C   0  0  0  0  0  0  0  0  0  0  0  0
    2.8579   -1.6500    0.0000 C   0  0  0  0  0  0  0  0  0  0  0  0
    3.5724   -1.2375    0.0000 O   0  0  0  0  0  0  0  0  0  0  0  0
    3.5724   -0.4125    0.0000 C   0  0  0  0  0  0  0  0  0  0  0  0
    4.2868   -0.0000    0.0000 C   0  0  0  0  0  0  0  0  0  0  0  0
    4.2868    0.8250    0.0000 C   0  0  0  0  0  0  0  0  0  0  0  0
    5.0013    1.2375    0.0000 C   0  0  0  0  0  0  0  0  0  0  0  0
    5.7158    0.8250    0.0000 C   0  0  0  0  0  0  0  0  0  0  0  0
    5.7158   -0.0000    0.0000 C   0  0  0  0  0  0  0  0  0  0  0  0
    5.0013   -0.4125    0.0000 C   0  0  0  0  0  0  0  0  0  0  0  0
    2.1434   -1.2375    0.0000 O   0  0  0  0  0  0  0  0  0  0  0  0
  1  2  2  0  0  0  0
  2  3  1  0  0  0  0
  3  4  2  0  0  0  0
  4  5  1  0  0  0  0
  5  6  2  0  0  0  0
  1  6  1  0  0  0  0
  2  7  1  0  0  0  0
  7  8  1  0  0  0  0
  8  9  1  0  0  0  0
  9 10  1  0  0  0  0
 10 11  2  0  0  0  0
 11 12  1  0  0  0  0
 12 13  2  0  0  0  0
 13 14  1  0  0  0  0
 14 15  2  0  0  0  0
 10 15  1  0  0  0  0
  7 16  2  0  0  0  0
M  END
>  <Name>
Benzyl benzoate

>  <CAS>
120-51-4

>  <Formula>
C14H12O2

>  <MolWt>
212.24 

>  <Bioactivity>
Benzyl benzoate is one of the older preparations used to treat scabies. Scabies is a skin infection caused by the mite sarcoptes scabiei. It is characterised by severe itching (particularly at night), red spots, and may lead to a secondary infection. Benzyl benzoate is lethal to this mite and so is useful in the treatment of scabies. It is also used to treat lice infestation of the head and body. Benzyl benzoate is not the treatment of choice for scabies due to its irritant properties.

>  <Pathways>
Others

>  <Target>
Others

>  <Receptor>
Others

>  <Reference>
1. Rokade K, Mali G. World J Microbiol Biotechnol. 2014 Mar;30(3):827-33.

$$$$
T0730
  Mrv1561503291623562D          

 15 14  0  0  0  0            999 V2000
    6.5704    2.1434    0.0000 C   0  0  0  0  0  0  0  0  0  0  0  0
    5.8559    2.5559    0.0000 C   0  0  0  0  0  0  0  0  0  0  0  0
    5.8559    3.3809    0.0000 O   0  0  0  0  0  0  0  0  0  0  0  0
    5.1414    3.7934    0.0000 C   0  0  0  0  0  0  0  0  0  0  0  0
    4.4270    3.3809    0.0000 O   0  0  0  0  0  0  0  0  0  0  0  0
    5.1414    4.6184    0.0000 C   0  0  0  0  0  0  0  0  0  0  0  0
    5.1414    2.1434    0.0000 C   0  0  0  0  0  0  0  0  0  0  0  0
    4.4270    2.5559    0.0000 O   0  0  0  0  0  0  0  0  0  0  0  0
    3.7125    2.1434    0.0000 C   0  0  0  0  0  0  0  0  0  0  0  0
    2.9980    2.5559    0.0000 C   0  0  0  0  0  0  0  0  0  0  0  0
    3.7125    1.3184    0.0000 O   0  0  0  0  0  0  0  0  0  0  0  0
    7.2849    2.5559    0.0000 O   0  0  0  0  0  0  0  0  0  0  0  0
    7.9993    2.1434    0.0000 C   0  0  0  0  0  0  0  0  0  0  0  0
    8.7138    2.5559    0.0000 C   0  0  0  0  0  0  0  0  0  0  0  0
    7.9993    1.3184    0.0000 O   0  0  0  0  0  0  0  0  0  0  0  0
  1  2  1  0  0  0  0
  2  3  1  0  0  0  0
  3  4  1  0  0  0  0
  4  5  2  0  0  0  0
  4  6  1  0  0  0  0
  2  7  1  0  0  0  0
  7  8  1  0  0  0  0
  8  9  1  0  0  0  0
  9 10  1  0  0  0  0
  9 11  2  0  0  0  0
  1 12  1  0  0  0  0
 12 13  1  0  0  0  0
 13 14  1  0  0  0  0
 13 15  2  0  0  0  0
M  END
>  <Name>
Triacetin

>  <CAS>
102-76-1

>  <Formula>
C9H14O6

>  <MolWt>
218.20 

>  <Bioactivity>
It is an artificial chemical compound, commonly used as a food additive, for instance as a solvent in flavourings, and for its humectant function

>  <Pathways>
Microbiology & Virology

>  <Target>
Antifungal

>  <Receptor>
Others

>  <Reference>
1. Tsen AR, et al. Int J Cancer. 2014 Mar 15;134(6):1300-10. 

$$$$
59-50-7
  Mrv1561503291623562D          

  9  9  0  0  0  0            999 V2000
    1.4289    0.8250    0.0000 C   0  0  0  0  0  0  0  0  0  0  0  0
    1.4289    0.0000    0.0000 C   0  0  0  0  0  0  0  0  0  0  0  0
    0.7145   -0.4125    0.0000 C   0  0  0  0  0  0  0  0  0  0  0  0
   -0.0000    0.0000    0.0000 C   0  0  0  0  0  0  0  0  0  0  0  0
   -0.0000    0.8250    0.0000 C   0  0  0  0  0  0  0  0  0  0  0  0
    0.7145    1.2375    0.0000 C   0  0  0  0  0  0  0  0  0  0  0  0
    0.7145    2.0625    0.0000 O   0  0  0  0  0  0  0  0  0  0  0  0
    0.7145   -1.2375    0.0000 Cl  0  0  0  0  0  0  0  0  0  0  0  0
    2.1434   -0.4125    0.0000 C   0  0  0  0  0  0  0  0  0  0  0  0
  1  2  2  0  0  0  0
  2  3  1  0  0  0  0
  3  4  2  0  0  0  0
  4  5  1  0  0  0  0
  5  6  2  0  0  0  0
  1  6  1  0  0  0  0
  6  7  1  0  0  0  0
  3  8  1  0  0  0  0
  2  9  1  0  0  0  0
M  END
>  <Name>
Aptal

>  <CAS>
59-50-7

>  <Formula>
C7H7ClO

>  <MolWt>
142.58 

>  <Bioactivity>
Chlorocresol is an activator of ryanodine receptor

>  <Pathways>
Others

>  <Target>
Ryanodine receptor activator

>  <Receptor>
Ryanodine receptor

>  <Reference>
1. Gómez de la Fuente E, et al. Actas Dermosifiliogr. 2013 Jan;104(1):90-2. 

$$$$
504-24-5
  Mrv1561503291623562D          

  7  7  0  0  0  0            999 V2000
    0.0000    0.8250    0.0000 C   0  0  0  0  0  0  0  0  0  0  0  0
    0.7145    1.2375    0.0000 C   0  0  0  0  0  0  0  0  0  0  0  0
    1.4289    0.8250    0.0000 C   0  0  0  0  0  0  0  0  0  0  0  0
    1.4289   -0.0000    0.0000 C   0  0  0  0  0  0  0  0  0  0  0  0
    0.7145   -0.4125    0.0000 N   0  0  0  0  0  0  0  0  0  0  0  0
   -0.0000    0.0000    0.0000 C   0  0  0  0  0  0  0  0  0  0  0  0
    0.7145    2.0625    0.0000 N   0  0  0  0  0  0  0  0  0  0  0  0
  1  2  2  0  0  0  0
  2  3  1  0  0  0  0
  3  4  2  0  0  0  0
  4  5  1  0  0  0  0
  5  6  2  0  0  0  0
  1  6  1  0  0  0  0
  2  7  1  0  0  0  0
M  END
>  <Name>
4-Aminopyridine

>  <CAS>
504-24-5

>  <Formula>
C5H6N2

>  <MolWt>
94.11 

>  <Bioactivity>
Dalfampridine is a potassium channel blocker used to help multiple sclerosis patients walk. This is the first drug that was specifically approved to help with mobility in these patients. FDA approved on January 22, 2010.

>  <Pathways>
Membrane Transporter/Ion Channel

>  <Target>
Potassium Channel inhibitor

>  <Receptor>
Potassium Channel

>  <Reference>
1. Judge SI, et al. Pharmacol Ther. 2006, 111(1):224-59. 

$$$$
T0873
  Mrv1561503291623562D          

 16 16  0  0  0  0            999 V2000
    1.4289    0.8250    0.0000 C   0  0  0  0  0  0  0  0  0  0  0  0
    1.4289    0.0000    0.0000 C   0  0  0  0  0  0  0  0  0  0  0  0
    2.1434   -0.4125    0.0000 N   0  3  0  0  0  0  0  0  0  0  0  0
    2.1434   -1.2375    0.0000 O   0  0  0  0  0  0  0  0  0  0  0  0
    2.8579   -0.0000    0.0000 O   0  5  0  0  0  0  0  0  0  0  0  0
    0.7145   -0.4125    0.0000 C   0  0  0  0  0  0  0  0  0  0  0  0
   -0.0000    0.0000    0.0000 C   0  0  0  0  0  0  0  0  0  0  0  0
   -0.0000    0.8250    0.0000 C   0  0  0  0  0  0  0  0  0  0  0  0
    0.7145    1.2375    0.0000 C   0  0  0  0  0  0  0  0  0  0  0  0
    0.7145    2.0625    0.0000 C   0  0  0  0  0  0  0  0  0  0  0  0
    0.0000    2.4750    0.0000 N   0  0  0  0  0  0  0  0  0  0  0  0
    1.4289    2.4750    0.0000 O   0  0  0  0  0  0  0  0  0  0  0  0
   -0.7145    1.2375    0.0000 C   0  0  0  0  0  0  0  0  0  0  0  0
   -0.7145   -0.4125    0.0000 N   0  3  0  0  0  0  0  0  0  0  0  0
   -1.4289    0.0000    0.0000 O   0  0  0  0  0  0  0  0  0  0  0  0
   -0.7145   -1.2375    0.0000 O   0  5  0  0  0  0  0  0  0  0  0  0
  1  2  2  0  0  0  0
  2  3  1  0  0  0  0
  3  4  2  0  0  0  0
  3  5  1  0  0  0  0
  2  6  1  0  0  0  0
  6  7  2  0  0  0  0
  7  8  1  0  0  0  0
  8  9  2  0  0  0  0
  1  9  1  0  0  0  0
  9 10  1  0  0  0  0
 10 11  1  0  0  0  0
 10 12  2  0  0  0  0
  8 13  1  0  0  0  0
  7 14  1  0  0  0  0
 14 15  2  0  0  0  0
 14 16  1  0  0  0  0
M  CHG  4   3   1   5  -1  14   1  16  -1
M  END
>  <Name>
Dinitolmide

>  <CAS>
148-01-6

>  <Formula>
C8H7N3O5

>  <MolWt>
225.16 

>  <Bioactivity>
Dinitolmide is a broad-spectrum anticoccidial drug.

>  <Pathways>
Microbiology & Virology

>  <Target>
Antibiotic

>  <Receptor>
Others

>  <Reference>
1. Analyst, 1969(94), 1159-1163

$$$$
T0874
  Mrv1561503291623562D          

 10 10  0  0  0  0            999 V2000
    0.9803   -0.1553    0.0000 C   0  0  0  0  0  0  0  0  0  0  0  0
    0.1553   -0.1553    0.0000 C   0  0  0  0  0  0  0  0  0  0  0  0
   -0.0997    0.6294    0.0000 N   0  0  0  0  0  0  0  0  0  0  0  0
    0.5678    1.1143    0.0000 C   0  0  0  0  0  0  0  0  0  0  0  0
    1.2352    0.6294    0.0000 N   0  0  0  0  0  0  0  0  0  0  0  0
    0.5678    1.9393    0.0000 C   0  0  0  0  0  0  0  0  0  0  0  0
   -0.8843    0.8843    0.0000 C   0  0  0  0  0  0  0  0  0  0  0  0
   -0.3297   -0.8227    0.0000 N   0  3  0  0  0  0  0  0  0  0  0  0
    0.0059   -1.5764    0.0000 O   0  0  0  0  0  0  0  0  0  0  0  0
   -1.1501   -0.7365    0.0000 O   0  5  0  0  0  0  0  0  0  0  0  0
  1  2  2  0  0  0  0
  2  3  1  0  0  0  0
  3  4  1  0  0  0  0
  4  5  2  0  0  0  0
  1  5  1  0  0  0  0
  4  6  1  0  0  0  0
  3  7  1  0  0  0  0
  2  8  1  0  0  0  0
  8  9  2  0  0  0  0
  8 10  1  0  0  0  0
M  CHG  2   8   1  10  -1
M  END
>  <Name>
Dimetridazole

>  <CAS>
551-92-8

>  <Formula>
C5H9N3O2

>  <MolWt>
141.13 

>  <Bioactivity>
Dimetridazole is a drug that combats protozoan infections. It is a nitroimidazole class drug. It has been banned by the Canadian government as a livestock feed additive. 

>  <Pathways>
Microbiology & Virology

>  <Target>
Antiprotozoal

>  <Receptor>
Others

>  <Reference>
1. Dalton P. Vet Rec. 1996 Oct 19;139(16):399.

$$$$
5728-52-9
  Mrv1561503291623562D          

 16 17  0  0  0  0            999 V2000
    1.4289   -2.4750    0.0000 C   0  0  0  0  0  0  0  0  0  0  0  0
    0.7145   -2.8875    0.0000 C   0  0  0  0  0  0  0  0  0  0  0  0
    0.7145   -3.7125    0.0000 C   0  0  0  0  0  0  0  0  0  0  0  0
    1.4289   -4.1250    0.0000 C   0  0  0  0  0  0  0  0  0  0  0  0
    1.4289   -4.9500    0.0000 C   0  0  0  0  0  0  0  0  0  0  0  0
    0.7145   -5.3625    0.0000 C   0  0  0  0  0  0  0  0  0  0  0  0
   -0.0000   -4.9500    0.0000 C   0  0  0  0  0  0  0  0  0  0  0  0
   -0.0000   -4.1250    0.0000 C   0  0  0  0  0  0  0  0  0  0  0  0
   -0.0000   -2.4750    0.0000 C   0  0  0  0  0  0  0  0  0  0  0  0
   -0.0000   -1.6500    0.0000 C   0  0  0  0  0  0  0  0  0  0  0  0
    0.7145   -1.2375    0.0000 C   0  0  0  0  0  0  0  0  0  0  0  0
    1.4289   -1.6500    0.0000 C   0  0  0  0  0  0  0  0  0  0  0  0
    0.7145   -0.4125    0.0000 C   0  0  0  0  0  0  0  0  0  0  0  0
    1.4289    0.0000    0.0000 C   0  0  0  0  0  0  0  0  0  0  0  0
    1.4289    0.8250    0.0000 O   0  0  0  0  0  0  0  0  0  0  0  0
    2.1434   -0.4125    0.0000 O   0  0  0  0  0  0  0  0  0  0  0  0
  1  2  2  0  0  0  0
  2  3  1  0  0  0  0
  3  4  2  0  0  0  0
  4  5  1  0  0  0  0
  5  6  2  0  0  0  0
  6  7  1  0  0  0  0
  7  8  2  0  0  0  0
  3  8  1  0  0  0  0
  2  9  1  0  0  0  0
  9 10  2  0  0  0  0
 10 11  1  0  0  0  0
 11 12  2  0  0  0  0
  1 12  1  0  0  0  0
 11 13  1  0  0  0  0
 13 14  1  0  0  0  0
 14 15  1  0  0  0  0
 14 16  2  0  0  0  0
M  END
>  <Name>
4-Biphenylacetic acid

>  <CAS>
5728-52-9

>  <Formula>
C14H12O2

>  <MolWt>
212.24 

>  <Bioactivity>
Felbinac (INN, or biphenylylacetic acid) is a topical medicine, belonging to the family of medicines known as non-steroidal anti-inflammatory drugs (NSAIDs) of the arylpropionic acid class, which is used to treat muscle inflammation and arthritis. It is an active metabolite of fenbufen.

>  <Pathways>
Neuroscience

>  <Target>
COX inhibitor

>  <Receptor>
Prostaglandin G/H synthase

>  <Reference>
1. Kohler C, et al. Arzneimittelforschung. 1980;30(4A):702-7.

$$$$
61-68-7
  Mrv1561503291623562D          

 18 19  0  0  0  0            999 V2000
    2.8579   -2.4750    0.0000 C   0  0  0  0  0  0  0  0  0  0  0  0
    2.8579   -1.6500    0.0000 C   0  0  0  0  0  0  0  0  0  0  0  0
    2.1434   -1.2375    0.0000 C   0  0  0  0  0  0  0  0  0  0  0  0
    1.4289   -1.6500    0.0000 C   0  0  0  0  0  0  0  0  0  0  0  0
    1.4289   -2.4750    0.0000 C   0  0  0  0  0  0  0  0  0  0  0  0
    2.1434   -2.8875    0.0000 C   0  0  0  0  0  0  0  0  0  0  0  0
    2.1434   -0.4125    0.0000 C   0  0  0  0  0  0  0  0  0  0  0  0
    2.8579   -0.0000    0.0000 O   0  0  0  0  0  0  0  0  0  0  0  0
    1.4289   -0.0000    0.0000 O   0  0  0  0  0  0  0  0  0  0  0  0
    3.5724   -1.2375    0.0000 N   0  0  0  0  0  0  0  0  0  0  0  0
    4.2868   -1.6500    0.0000 C   0  0  0  0  0  0  0  0  0  0  0  0
    5.0013   -1.2375    0.0000 C   0  0  0  0  0  0  0  0  0  0  0  0
    5.7158   -1.6500    0.0000 C   0  0  0  0  0  0  0  0  0  0  0  0
    5.7158   -2.4750    0.0000 C   0  0  0  0  0  0  0  0  0  0  0  0
    5.0013   -2.8875    0.0000 C   0  0  0  0  0  0  0  0  0  0  0  0
    4.2868   -2.4750    0.0000 C   0  0  0  0  0  0  0  0  0  0  0  0
    6.4302   -1.2375    0.0000 C   0  0  0  0  0  0  0  0  0  0  0  0
    5.0013   -0.4125    0.0000 C   0  0  0  0  0  0  0  0  0  0  0  0
  1  2  2  0  0  0  0
  2  3  1  0  0  0  0
  3  4  2  0  0  0  0
  4  5  1  0  0  0  0
  5  6  2  0  0  0  0
  1  6  1  0  0  0  0
  3  7  1  0  0  0  0
  7  8  1  0  0  0  0
  7  9  2  0  0  0  0
  2 10  1  0  0  0  0
 10 11  1  0  0  0  0
 11 12  2  0  0  0  0
 12 13  1  0  0  0  0
 13 14  2  0  0  0  0
 14 15  1  0  0  0  0
 15 16  2  0  0  0  0
 11 16  1  0  0  0  0
 13 17  1  0  0  0  0
 12 18  1  0  0  0  0
M  END
>  <Name>
Mefenamic acid

>  <CAS>
61-68-7

>  <Formula>
C15H15NO2

>  <MolWt>
241.29 

>  <Bioactivity>
Mefenamic acid is a Nonsteroidal Anti-inflammatory Drug. The mechanism of action of mefenamic acid is as a Cyclooxygenase Inhibitor. The chemical classification of mefenamic acid is Nonsteroidal Anti-inflammatory Compounds.

>  <Pathways>
Neuroscience

>  <Target>
COX inhibitor

>  <Receptor>
Prostaglandin G/H synthase1/2

>  <Reference>
1. Bhat AS, et al. Eur J Pharmacol. 2007 Feb 5; 556(1-3):190-9.

$$$$
T0891
  Mrv1561503291623562D          

 17 18  0  0  0  0            999 V2000
    1.4289   -2.4750    0.0000 C   0  0  0  0  0  0  0  0  0  0  0  0
    1.4289   -3.3000    0.0000 C   0  0  0  0  0  0  0  0  0  0  0  0
    0.7145   -3.7125    0.0000 C   0  0  0  0  0  0  0  0  0  0  0  0
   -0.0000   -3.3000    0.0000 C   0  0  0  0  0  0  0  0  0  0  0  0
   -0.0000   -2.4750    0.0000 C   0  0  0  0  0  0  0  0  0  0  0  0
    0.7145   -2.0625    0.0000 C   0  0  0  0  0  0  0  0  0  0  0  0
    0.7145   -1.2375    0.0000 S   0  0  0  0  0  0  0  0  0  0  0  0
    0.7145   -0.4125    0.0000 C   0  0  0  0  0  0  0  0  0  0  0  0
    0.0000    0.0000    0.0000 C   0  0  0  0  0  0  0  0  0  0  0  0
    0.0000    0.8250    0.0000 C   0  0  0  0  0  0  0  0  0  0  0  0
    0.7145    1.2375    0.0000 C   0  0  0  0  0  0  0  0  0  0  0  0
    1.4289    0.8250    0.0000 C   0  0  0  0  0  0  0  0  0  0  0  0
    1.4289   -0.0000    0.0000 C   0  0  0  0  0  0  0  0  0  0  0  0
    0.7145    2.0625    0.0000 N   0  0  0  0  0  0  0  0  0  0  0  0
   -0.1105   -1.2375    0.0000 O   0  0  0  0  0  0  0  0  0  0  0  0
    1.5395   -1.2375    0.0000 O   0  0  0  0  0  0  0  0  0  0  0  0
    0.7145   -4.5375    0.0000 N   0  0  0  0  0  0  0  0  0  0  0  0
  1  2  2  0  0  0  0
  2  3  1  0  0  0  0
  3  4  2  0  0  0  0
  4  5  1  0  0  0  0
  5  6  2  0  0  0  0
  1  6  1  0  0  0  0
  6  7  1  0  0  0  0
  7  8  1  0  0  0  0
  8  9  2  0  0  0  0
  9 10  1  0  0  0  0
 10 11  2  0  0  0  0
 11 12  1  0  0  0  0
 12 13  2  0  0  0  0
  8 13  1  0  0  0  0
 11 14  1  0  0  0  0
  7 15  2  0  0  0  0
  7 16  2  0  0  0  0
  3 17  1  0  0  0  0
M  END
>  <Name>
Sulphadione

>  <CAS>
80-08-0

>  <Formula>
C12H12N2O2S

>  <MolWt>
248.30 

>  <Bioactivity>
A sulfone active against a wide range of bacteria but mainly employed for its actions against MYCOBACTERIUM LEPRAE. Its mechanism of action is probably similar to that of the SULFONAMIDES which involves inhibition of folic acid synthesis in susceptible organisms. It is also used with PYRIMETHAMINE in the treatment of malaria.

>  <Pathways>
Microbiology & Virology

>  <Target>
Antibiotic

>  <Receptor>
Others

>  <Reference>
1. Gengenbacher M, et al. FEMS Microbiol Lett. 2008 Oct;287(1):128-35. 

$$$$
T0893
  Mrv1561503291623562D          

 16 16  0  0  0  0            999 V2000
    0.9803   -0.1553    0.0000 C   0  0  0  0  0  0  0  0  0  0  0  0
    0.1553   -0.1553    0.0000 C   0  0  0  0  0  0  0  0  0  0  0  0
   -0.0997    0.6294    0.0000 N   0  0  0  0  0  0  0  0  0  0  0  0
   -0.8843    0.8843    0.0000 C   0  0  0  0  0  0  0  0  0  0  0  0
   -1.0558    1.6913    0.0000 C   0  0  0  0  0  0  0  0  0  0  0  0
   -1.8405    1.9462    0.0000 S   0  0  0  0  0  0  0  0  0  0  0  0
   -2.6251    2.2012    0.0000 C   0  0  0  0  0  0  0  0  0  0  0  0
   -2.7966    3.0081    0.0000 C   0  0  0  0  0  0  0  0  0  0  0  0
   -2.0954    1.1616    0.0000 O   0  0  0  0  0  0  0  0  0  0  0  0
   -1.5855    2.7308    0.0000 O   0  0  0  0  0  0  0  0  0  0  0  0
    0.5678    1.1143    0.0000 C   0  0  0  0  0  0  0  0  0  0  0  0
    1.2352    0.6294    0.0000 N   0  0  0  0  0  0  0  0  0  0  0  0
    0.5678    1.9393    0.0000 C   0  0  0  0  0  0  0  0  0  0  0  0
   -0.3297   -0.8227    0.0000 N   0  3  0  0  0  0  0  0  0  0  0  0
    0.0059   -1.5764    0.0000 O   0  0  0  0  0  0  0  0  0  0  0  0
   -1.1501   -0.7365    0.0000 O   0  5  0  0  0  0  0  0  0  0  0  0
  1  2  2  0  0  0  0
  2  3  1  0  0  0  0
  3  4  1  0  0  0  0
  4  5  1  0  0  0  0
  5  6  1  0  0  0  0
  6  7  1  0  0  0  0
  7  8  1  0  0  0  0
  6  9  2  0  0  0  0
  6 10  2  0  0  0  0
  3 11  1  0  0  0  0
 11 12  2  0  0  0  0
  1 12  1  0  0  0  0
 11 13  1  0  0  0  0
  2 14  1  0  0  0  0
 14 15  2  0  0  0  0
 14 16  1  0  0  0  0
M  CHG  2  14   1  16  -1
M  END
>  <Name>
Tinidazole

>  <CAS>
19387-91-8

>  <Formula>
C8H13N3O4S

>  <MolWt>
247.27 

>  <Bioactivity>
A nitroimidazole antitrichomonal agent effective against Trichomonas vaginalis, Entamoeba histolytica, and Giardia lamblia infections. 

>  <Pathways>
Microbiology & Virology

>  <Target>
Antibiotic

>  <Receptor>
DNA

>  <Reference>
1. Fung HB, Doan TL. Clin Ther. 2005 Dec; 27(12):1859-84. 

$$$$
T0921
  Mrv1561503291623562D          

 19 20  0  0  0  0            999 V2000
    2.1434   -3.7125    0.0000 C   0  0  0  0  0  0  0  0  0  0  0  0
    2.1434   -4.5375    0.0000 C   0  0  0  0  0  0  0  0  0  0  0  0
    1.4289   -4.9500    0.0000 C   0  0  0  0  0  0  0  0  0  0  0  0
    0.7145   -4.5375    0.0000 C   0  0  0  0  0  0  0  0  0  0  0  0
    0.7145   -3.7125    0.0000 C   0  0  0  0  0  0  0  0  0  0  0  0
    1.4289   -3.3000    0.0000 C   0  0  0  0  0  0  0  0  0  0  0  0
    1.4289   -2.4750    0.0000 S   0  0  0  0  0  0  0  0  0  0  0  0
    1.4289   -1.6500    0.0000 N   0  0  0  0  0  0  0  0  0  0  0  0
    0.7145   -1.2375    0.0000 C   0  0  0  0  0  0  0  0  0  0  0  0
    0.7145   -0.4125    0.0000 C   0  0  0  0  0  0  0  0  0  0  0  0
    0.0000    0.0000    0.0000 C   0  0  0  0  0  0  0  0  0  0  0  0
    0.0000    0.8250    0.0000 C   0  0  0  0  0  0  0  0  0  0  0  0
    0.7145    1.2375    0.0000 C   0  0  0  0  0  0  0  0  0  0  0  0
    1.4289    0.8250    0.0000 C   0  0  0  0  0  0  0  0  0  0  0  0
    1.4289   -0.0000    0.0000 C   0  0  0  0  0  0  0  0  0  0  0  0
   -0.0000   -1.6500    0.0000 O   0  0  0  0  0  0  0  0  0  0  0  0
    0.6039   -2.4750    0.0000 O   0  0  0  0  0  0  0  0  0  0  0  0
    2.2539   -2.4750    0.0000 O   0  0  0  0  0  0  0  0  0  0  0  0
    1.4289   -5.7750    0.0000 N   0  0  0  0  0  0  0  0  0  0  0  0
  1  2  2  0  0  0  0
  2  3  1  0  0  0  0
  3  4  2  0  0  0  0
  4  5  1  0  0  0  0
  5  6  2  0  0  0  0
  1  6  1  0  0  0  0
  6  7  1  0  0  0  0
  7  8  1  0  0  0  0
  8  9  1  0  0  0  0
  9 10  1  0  0  0  0
 10 11  2  0  0  0  0
 11 12  1  0  0  0  0
 12 13  2  0  0  0  0
 13 14  1  0  0  0  0
 14 15  2  0  0  0  0
 10 15  1  0  0  0  0
  9 16  2  0  0  0  0
  7 17  2  0  0  0  0
  7 18  2  0  0  0  0
  3 19  1  0  0  0  0
M  END
>  <Name>
Sulfabenzamide

>  <CAS>
127-71-9

>  <Formula>
C13H12N2O3S

>  <MolWt>
276.31 

>  <Bioactivity>
Sulfabenzamide is an antibacterial/antimicrobial. Often used in conjunction with sulfathiazole and sulfacetamide (trade name - Sultrin) as a topical, intravaginal antibacterial preparation.

>  <Pathways>
Microbiology & Virology

>  <Target>
Antibiotic

>  <Receptor>
Others

>  <Reference>
1. Bagheri F, et al. Mol Biol Rep. 2014 Nov; 41(11):7387-94.

$$$$
T0923
  Mrv1561503291623562D          

 14 13  0  0  0  0            999 V2000
   -0.6039   -3.3000    0.0000 C   0  0  0  0  0  0  0  0  0  0  0  0
   -1.3184   -3.7125    0.0000 O   0  0  0  0  0  0  0  0  0  0  0  0
   -1.3184   -4.5375    0.0000 S   0  0  0  0  0  0  0  0  0  0  0  0
   -1.3184   -5.3625    0.0000 C   0  0  0  0  0  0  0  0  0  0  0  0
   -0.4934   -4.5375    0.0000 O   0  0  0  0  0  0  0  0  0  0  0  0
   -2.1434   -4.5375    0.0000 O   0  0  0  0  0  0  0  0  0  0  0  0
   -0.6039   -2.4750    0.0000 C   0  0  0  0  0  0  0  0  0  0  0  0
    0.1105   -2.0625    0.0000 C   0  0  0  0  0  0  0  0  0  0  0  0
    0.1105   -1.2375    0.0000 C   0  0  0  0  0  0  0  0  0  0  0  0
    0.8250   -0.8250    0.0000 O   0  0  0  0  0  0  0  0  0  0  0  0
    0.8250    0.0000    0.0000 S   0  0  0  0  0  0  0  0  0  0  0  0
    0.8250    0.8250    0.0000 C   0  0  0  0  0  0  0  0  0  0  0  0
    1.6500   -0.0000    0.0000 O   0  0  0  0  0  0  0  0  0  0  0  0
    0.0000    0.0000    0.0000 O   0  0  0  0  0  0  0  0  0  0  0  0
  1  2  1  0  0  0  0
  2  3  1  0  0  0  0
  3  4  1  0  0  0  0
  3  5  2  0  0  0  0
  3  6  2  0  0  0  0
  1  7  1  0  0  0  0
  7  8  1  0  0  0  0
  8  9  1  0  0  0  0
  9 10  1  0  0  0  0
 10 11  1  0  0  0  0
 11 12  1  0  0  0  0
 11 13  2  0  0  0  0
 11 14  2  0  0  0  0
M  END
>  <Name>
Busulfan

>  <CAS>
55-98-1

>  <Formula>
C6H14O6S2

>  <MolWt>
246.30 

>  <Bioactivity>
Antineoplastic bifunctional, DNA alkylating agent that causes DNA damage by cross-linking DNA and proteins. Causes double-base lesions mainly at 5'-GA-3' and, to a lesser extent, at 5'-GG-3' sequences. Forms an intrastrand cross-link at the 5'-GA-3' sequence, and to monoalkylation. Induces normal human fibroblast senescence selectively through Erk and p38 pathways

>  <Pathways>
DNA Damage/DNA Repair

>  <Target>
DNA Alkylating

>  <Receptor>
DNA

>  <Reference>
1. Meng A, et al. Cancer Res, 2003, 63(17), 5414-5419.

$$$$
T0930
  Mrv1561503291623562D          

 17 18  0  0  0  0            999 V2000
   -0.7145   -2.0625    0.0000 C   0  0  0  0  0  0  0  0  0  0  0  0
   -0.7145   -2.8875    0.0000 C   0  0  0  0  0  0  0  0  0  0  0  0
   -1.4289   -3.3000    0.0000 C   0  0  0  0  0  0  0  0  0  0  0  0
   -2.1434   -2.8875    0.0000 C   0  0  0  0  0  0  0  0  0  0  0  0
   -2.1434   -2.0625    0.0000 C   0  0  0  0  0  0  0  0  0  0  0  0
   -1.4289   -1.6500    0.0000 C   0  0  0  0  0  0  0  0  0  0  0  0
   -1.4289   -0.8250    0.0000 S   0  0  0  0  0  0  0  0  0  0  0  0
   -1.4289    0.0000    0.0000 N   0  0  0  0  0  0  0  0  0  0  0  0
   -2.1434    0.4125    0.0000 C   0  0  0  0  0  0  0  0  0  0  0  0
   -2.8579    0.0000    0.0000 N   0  0  0  0  0  0  0  0  0  0  0  0
   -3.5724    0.4125    0.0000 C   0  0  0  0  0  0  0  0  0  0  0  0
   -3.5724    1.2375    0.0000 C   0  0  0  0  0  0  0  0  0  0  0  0
   -2.8579    1.6500    0.0000 C   0  0  0  0  0  0  0  0  0  0  0  0
   -2.1434    1.2375    0.0000 N   0  0  0  0  0  0  0  0  0  0  0  0
   -2.2539   -0.8250    0.0000 O   0  0  0  0  0  0  0  0  0  0  0  0
   -0.6039   -0.8250    0.0000 O   0  0  0  0  0  0  0  0  0  0  0  0
   -1.4289   -4.1250    0.0000 N   0  0  0  0  0  0  0  0  0  0  0  0
  1  2  2  0  0  0  0
  2  3  1  0  0  0  0
  3  4  2  0  0  0  0
  4  5  1  0  0  0  0
  5  6  2  0  0  0  0
  1  6  1  0  0  0  0
  6  7  1  0  0  0  0
  7  8  1  0  0  0  0
  8  9  1  0  0  0  0
  9 10  2  0  0  0  0
 10 11  1  0  0  0  0
 11 12  2  0  0  0  0
 12 13  1  0  0  0  0
 13 14  2  0  0  0  0
  9 14  1  0  0  0  0
  7 15  2  0  0  0  0
  7 16  2  0  0  0  0
  3 17  1  0  0  0  0
M  END
>  <Name>
Sulfadiazine

>  <CAS>
68-35-9

>  <Formula>
C10H10N4O2S

>  <MolWt>
250.28 

>  <Bioactivity>
Sulfadiazine is a sulfonamide antibiotic. It eliminates bacteria that cause infections by stopping the production of folic acid inside the bacterial cell, and is commonly used to treat urinary tract infections (UTIs). In combination, sulfadiazine and pyrimethamine, can be used to treat toxoplasmosis, a disease caused by Toxoplasma gondii.

>  <Pathways>
Microbiology & Virology

>  <Target>
Antibiotic

>  <Receptor>
DHPS

>  <Reference>
1. Iliades P, et al. Antimicrob Agents Chemother. 2005 Feb;49(2):741-8. 

$$$$
55589-62-3
  Mrv1561503291623562D          

 11 10  0  0  0  0            999 V2000
    2.1434   -0.4125    0.0000 C   0  0  0  0  0  0  0  0  0  0  0  0
    1.4289   -0.0000    0.0000 C   0  0  0  0  0  0  0  0  0  0  0  0
    0.7145   -0.4125    0.0000 C   0  0  0  0  0  0  0  0  0  0  0  0
   -0.0000   -0.0000    0.0000 C   0  0  0  0  0  0  0  0  0  0  0  0
   -0.7145   -0.4125    0.0000 O   0  0  0  0  0  0  0  0  0  0  0  0
   -0.0000    0.8250    0.0000 N   0  0  0  0  0  0  0  0  0  0  0  0
    0.7145    1.2375    0.0000 S   0  0  0  0  0  0  0  0  0  0  0  0
    1.4289    0.8250    0.0000 O   0  0  0  0  0  0  0  0  0  0  0  0
    0.3272    1.9659    0.0000 O   0  5  0  0  0  0  0  0  0  0  0  0
    1.1018    1.9659    0.0000 O   0  0  0  0  0  0  0  0  0  0  0  0
   -0.0602    2.6944    0.0000 K   0  3  0  0  0  0  0  0  0  0  0  0
  1  2  1  0  0  0  0
  2  3  2  0  0  0  0
  3  4  1  0  0  0  0
  4  5  2  0  0  0  0
  4  6  1  0  0  0  0
  6  7  2  0  0  0  0
  7  8  1  0  0  0  0
  2  8  1  0  0  0  0
  7  9  1  0  0  0  0
  7 10  2  0  0  0  0
M  CHG  2   9  -1  11   1
M  END
>  <Name>
Acesulfame Potassium

>  <CAS>
55589-62-3

>  <Formula>
C4H4KNO4S

>  <MolWt>
201.24 

>  <Bioactivity>
Acesulfame potassium is a non-nutritive sweetener.

>  <Pathways>
Others

>  <Target>
Others

>  <Receptor>
Others

>  <Reference>
1. Kuhn C, et al. J Neurosci, 2004, 24(45), 10260-10265.

$$$$
90-05-1
  Mrv1561503291623562D          

  9  9  0  0  0  0            999 V2000
   -0.0000    0.0000    0.0000 C   0  0  0  0  0  0  0  0  0  0  0  0
   -0.0000    0.8250    0.0000 C   0  0  0  0  0  0  0  0  0  0  0  0
    0.7145    1.2375    0.0000 C   0  0  0  0  0  0  0  0  0  0  0  0
    1.4289    0.8250    0.0000 C   0  0  0  0  0  0  0  0  0  0  0  0
    1.4289   -0.0000    0.0000 C   0  0  0  0  0  0  0  0  0  0  0  0
    0.7145   -0.4125    0.0000 C   0  0  0  0  0  0  0  0  0  0  0  0
    0.7145    2.0625    0.0000 O   0  0  0  0  0  0  0  0  0  0  0  0
   -0.7145    1.2375    0.0000 O   0  0  0  0  0  0  0  0  0  0  0  0
   -1.4289    0.8250    0.0000 C   0  0  0  0  0  0  0  0  0  0  0  0
  1  2  2  0  0  0  0
  2  3  1  0  0  0  0
  3  4  2  0  0  0  0
  4  5  1  0  0  0  0
  5  6  2  0  0  0  0
  1  6  1  0  0  0  0
  3  7  1  0  0  0  0
  2  8  1  0  0  0  0
  8  9  1  0  0  0  0
M  END
>  <Name>
Guaiacol

>  <CAS>
90-05-1

>  <Formula>
C7H8O2

>  <MolWt>
124.14 

>  <Bioactivity>
Guaiacol is a precursor to various flavorants, such as eugenol and vanillin. Its derivatives are used medicinally as an expectorant, antiseptic, and local anesthetic. It also can be used as an indicator in chemical reactions that produce oxygen. When oxygen binds to it, the complex turns yellowish brown and absorbs light maximally at about 470 nm.


>  <Pathways>
Others

>  <Target>
Others

>  <Receptor>
Others

>  <Reference>
1. Dorfner R, et al. J Agric Food Chem. 2003 Sep 10;51(19):5768-73.

$$$$
67-20-9
  Mrv1561503291623562D          

 17 18  0  0  0  0            999 V2000
    2.7308   -3.2309    0.0000 C   0  0  0  0  0  0  0  0  0  0  0  0
    1.9058   -3.2309    0.0000 C   0  0  0  0  0  0  0  0  0  0  0  0
    1.4209   -3.8983    0.0000 C   0  0  0  0  0  0  0  0  0  0  0  0
    1.7565   -4.6520    0.0000 N   0  0  0  0  0  0  0  0  0  0  0  0
    1.2715   -5.3195    0.0000 N   0  0  0  0  0  0  0  0  0  0  0  0
    1.5265   -6.1041    0.0000 C   0  0  0  0  0  0  0  0  0  0  0  0
    0.8590   -6.5890    0.0000 C   0  0  0  0  0  0  0  0  0  0  0  0
    0.8590   -7.4140    0.0000 O   0  0  0  0  0  0  0  0  0  0  0  0
    0.1916   -6.1041    0.0000 N   0  0  0  0  0  0  0  0  0  0  0  0
    0.4465   -5.3195    0.0000 C   0  0  0  0  0  0  0  0  0  0  0  0
   -0.0384   -4.6520    0.0000 O   0  0  0  0  0  0  0  0  0  0  0  0
    1.6509   -2.4463    0.0000 O   0  0  0  0  0  0  0  0  0  0  0  0
    2.3183   -1.9614    0.0000 C   0  0  0  0  0  0  0  0  0  0  0  0
    2.9858   -2.4463    0.0000 C   0  0  0  0  0  0  0  0  0  0  0  0
    2.3183   -1.1364    0.0000 N   0  3  0  0  0  0  0  0  0  0  0  0
    1.6039   -0.7239    0.0000 O   0  0  0  0  0  0  0  0  0  0  0  0
    3.0328   -0.7239    0.0000 O   0  5  0  0  0  0  0  0  0  0  0  0
  1  2  2  0  0  0  0
  2  3  1  0  0  0  0
  3  4  2  0  0  0  0
  4  5  1  0  0  0  0
  5  6  1  0  0  0  0
  6  7  1  0  0  0  0
  7  8  2  0  0  0  0
  7  9  1  0  0  0  0
  9 10  1  0  0  0  0
  5 10  1  0  0  0  0
 10 11  2  0  0  0  0
  2 12  1  0  0  0  0
 12 13  1  0  0  0  0
 13 14  2  0  0  0  0
  1 14  1  0  0  0  0
 13 15  1  0  0  0  0
 15 16  2  0  0  0  0
 15 17  1  0  0  0  0
M  CHG  2  15   1  17  -1
M  END
>  <Name>
Nitrofurantoin

>  <CAS>
67-20-9

>  <Formula>
C8H6N4O5

>  <MolWt>
238.16 

>  <Bioactivity>
A urinary anti-infective agent effective against most gram-positive and gram-negative organisms. Although sulfonamides and antibiotics are usually the agents of choice for urinary tract infections, nitrofurantoin is widely used for prophylaxis and long-term suppression.  

>  <Pathways>
Others

>  <Target>
Others

>  <Receptor>
NADPH nitroreductase

>  <Reference>
1. Sisson G, et al. Antimicrob Agents Chemother. 2002 Jul;46(7):2116-23.

$$$$
T1394
  Mrv1561503291623562D          

 15 15  0  0  0  0            999 V2000
    1.4289    0.8250    0.0000 C   0  0  0  0  0  0  0  0  0  0  0  0
    1.4289    0.0000    0.0000 C   0  0  0  0  0  0  0  0  0  0  0  0
    0.7145   -0.4125    0.0000 C   0  0  0  0  0  0  0  0  0  0  0  0
   -0.0000    0.0000    0.0000 C   0  0  0  0  0  0  0  0  0  0  0  0
   -0.0000    0.8250    0.0000 C   0  0  0  0  0  0  0  0  0  0  0  0
    0.7145    1.2375    0.0000 C   0  0  0  0  0  0  0  0  0  0  0  0
    0.7145    2.0625    0.0000 C   0  0  0  0  0  0  0  0  0  0  0  0
    0.0000    2.4750    0.0000 C   0  0  0  0  0  0  0  0  0  0  0  0
    0.0000    3.3000    0.0000 O   0  0  0  0  0  0  0  0  0  0  0  0
   -0.7145    2.0625    0.0000 O   0  0  0  0  0  0  0  0  0  0  0  0
    1.4289    2.4750    0.0000 C   0  0  0  0  0  0  0  0  0  0  0  0
    0.7145   -1.2375    0.0000 C   0  0  0  0  0  0  0  0  0  0  0  0
   -0.0000   -1.6500    0.0000 C   0  0  0  0  0  0  0  0  0  0  0  0
   -0.0000   -2.4750    0.0000 C   0  0  0  0  0  0  0  0  0  0  0  0
   -0.7145   -1.2375    0.0000 C   0  0  0  0  0  0  0  0  0  0  0  0
  1  2  2  0  0  0  0
  2  3  1  0  0  0  0
  3  4  2  0  0  0  0
  4  5  1  0  0  0  0
  5  6  2  0  0  0  0
  1  6  1  0  0  0  0
  6  7  1  0  0  0  0
  7  8  1  0  0  0  0
  8  9  2  0  0  0  0
  8 10  1  0  0  0  0
  7 11  1  0  0  0  0
  3 12  1  0  0  0  0
 12 13  1  0  0  0  0
 13 14  1  0  0  0  0
 13 15  1  0  0  0  0
M  END
>  <Name>
Ibuprofen

>  <CAS>
15687-27-1

>  <Formula>
C13H18O2

>  <MolWt>
206.28 

>  <Bioactivity>
Ibuprofen (Motrin) is an anti-inflammatory inhibitor targeting COX-1 and COX-2, of which is used for pain relief, fever reduction and for reducing swelling. Ibuprofen, a propionic acid derivative, is a prototypical nonsteroidal anti-inflammatory agent (NSAIA) with analgesic and antipyretic properties

>  <Pathways>
Angiogensis; Metabolism;Neuroscience; Apoptosis

>  <Target>
Thrombomodulin;PPAR activator;COX inhibitor;Bcl-2 modulator

>  <Receptor>
CFTR;Thrombomodulin;PPAR?;Prostaglandin G/H synthase1;Bcl-2;Prostaglandin G/H synthase2

>  <Reference>
1. Noreen Y, et al. J Nat Prod, 1998, 61(1), 2-7.

$$$$
81-13-0
  Mrv1561503291623562D          

 14 13  0  0  1  0            999 V2000
   -0.9059   -1.1270    0.0000 C   0  0  1  0  0  0  0  0  0  0  0  0
   -0.1914   -0.7145    0.0000 C   0  0  0  0  0  0  0  0  0  0  0  0
    0.5230   -1.1270    0.0000 N   0  0  0  0  0  0  0  0  0  0  0  0
    1.2375   -0.7145    0.0000 C   0  0  0  0  0  0  0  0  0  0  0  0
    1.9520   -1.1270    0.0000 C   0  0  0  0  0  0  0  0  0  0  0  0
    2.6664   -0.7145    0.0000 C   0  0  0  0  0  0  0  0  0  0  0  0
    3.3809   -1.1270    0.0000 O   0  0  0  0  0  0  0  0  0  0  0  0
   -0.1914    0.1105    0.0000 O   0  0  0  0  0  0  0  0  0  0  0  0
   -1.6204   -0.7145    0.0000 C   0  0  0  0  0  0  0  0  0  0  0  0
   -2.3349   -0.3020    0.0000 C   0  0  0  0  0  0  0  0  0  0  0  0
   -3.0493   -0.7145    0.0000 O   0  0  0  0  0  0  0  0  0  0  0  0
   -1.2079    0.0000    0.0000 C   0  0  0  0  0  0  0  0  0  0  0  0
   -2.0329   -1.4289    0.0000 C   0  0  0  0  0  0  0  0  0  0  0  0
   -0.9059   -1.9520    0.0000 O   0  0  0  0  0  0  0  0  0  0  0  0
  1  2  1  0  0  0  0
  2  3  1  0  0  0  0
  3  4  1  0  0  0  0
  4  5  1  0  0  0  0
  5  6  1  0  0  0  0
  6  7  1  0  0  0  0
  2  8  2  0  0  0  0
  1  9  1  0  0  0  0
  9 10  1  0  0  0  0
 10 11  1  0  0  0  0
  9 12  1  0  0  0  0
  9 13  1  0  0  0  0
  1 14  1  6  0  0  0
M  END
>  <Name>
Dexpanthenol

>  <CAS>
81-13-0

>  <Formula>
C9H19NO4

>  <MolWt>
205.25 

>  <Bioactivity>
Panthenol (pantothenol) is the alcohol analog of pantothenic acid (vitamin B5), and is thus a provitamin of B5.

>  <Pathways>
Vitamin

>  <Target>
VB

>  <Receptor>
VB5

>  <Reference>
1. Ebner F, et al. Am J Clin Dermatol. 2002; 3(6):427-33.

$$$$
29122-68-7
  Mrv1561503291623562D          

 19 19  0  0  0  0            999 V2000
   -3.5724    0.4125    0.0000 C   0  0  0  0  0  0  0  0  0  0  0  0
   -2.8579    0.0000    0.0000 C   0  0  0  0  0  0  0  0  0  0  0  0
   -2.8579   -0.8250    0.0000 C   0  0  0  0  0  0  0  0  0  0  0  0
   -3.5724   -1.2375    0.0000 C   0  0  0  0  0  0  0  0  0  0  0  0
   -4.2868   -0.8250    0.0000 C   0  0  0  0  0  0  0  0  0  0  0  0
   -4.2868    0.0000    0.0000 C   0  0  0  0  0  0  0  0  0  0  0  0
   -5.0013   -1.2375    0.0000 C   0  0  0  0  0  0  0  0  0  0  0  0
   -5.7158   -0.8250    0.0000 C   0  0  0  0  0  0  0  0  0  0  0  0
   -6.4302   -1.2375    0.0000 N   0  0  0  0  0  0  0  0  0  0  0  0
   -5.7158    0.0000    0.0000 O   0  0  0  0  0  0  0  0  0  0  0  0
   -2.1434    0.4125    0.0000 O   0  0  0  0  0  0  0  0  0  0  0  0
   -1.4289    0.0000    0.0000 C   0  0  0  0  0  0  0  0  0  0  0  0
   -0.7145    0.4125    0.0000 C   0  0  0  0  0  0  0  0  0  0  0  0
    0.0000    0.0000    0.0000 C   0  0  0  0  0  0  0  0  0  0  0  0
    0.7145    0.4125    0.0000 N   0  0  0  0  0  0  0  0  0  0  0  0
    1.4289    0.0000    0.0000 C   0  0  0  0  0  0  0  0  0  0  0  0
    2.1434    0.4125    0.0000 C   0  0  0  0  0  0  0  0  0  0  0  0
    1.4289   -0.8250    0.0000 C   0  0  0  0  0  0  0  0  0  0  0  0
   -0.7145    1.2375    0.0000 O   0  0  0  0  0  0  0  0  0  0  0  0
  1  2  2  0  0  0  0
  2  3  1  0  0  0  0
  3  4  2  0  0  0  0
  4  5  1  0  0  0  0
  5  6  2  0  0  0  0
  1  6  1  0  0  0  0
  5  7  1  0  0  0  0
  7  8  1  0  0  0  0
  8  9  1  0  0  0  0
  8 10  2  0  0  0  0
  2 11  1  0  0  0  0
 11 12  1  0  0  0  0
 12 13  1  0  0  0  0
 13 14  1  0  0  0  0
 14 15  1  0  0  0  0
 15 16  1  0  0  0  0
 16 17  1  0  0  0  0
 16 18  1  0  0  0  0
 13 19  1  0  0  0  0
M  END
>  <Name>
Atenolol

>  <CAS>
29122-68-7

>  <Formula>
C14H22N2O3

>  <MolWt>
266.34 

>  <Bioactivity>
A cardioselective beta-1 adrenergic blocker possessing properties and potency similar to PROPRANOLOL, but without a negative inotropic effect. 

>  <Pathways>
GPCR/G Protein

>  <Target>
Adrenergic Receptor agonist 

>  <Receptor>
?-adrenergic receptor

>  <Reference>
1. Nuttall SL, et al. J Clin Pharm Ther. 2003 Jun;28(3):179-86.

$$$$
630-93-3
  Mrv1561503291623562D          

 20 21  0  0  0  0            999 V2000
   -1.6853    1.3636    0.0000 C   0  0  0  0  0  0  0  0  0  0  0  0
   -0.8783    1.5351    0.0000 C   0  0  0  0  0  0  0  0  0  0  0  0
   -0.3263    0.9220    0.0000 C   0  0  0  0  0  0  0  0  0  0  0  0
   -0.5812    0.1374    0.0000 C   0  0  0  0  0  0  0  0  0  0  0  0
   -0.0292   -0.4757    0.0000 C   0  0  0  0  0  0  0  0  0  0  0  0
    0.6382   -0.9606    0.0000 C   0  0  0  0  0  0  0  0  0  0  0  0
    0.3833   -1.7452    0.0000 N   0  5  0  0  0  0  0  0  0  0  0  0
   -0.4417   -1.7452    0.0000 C   0  0  0  0  0  0  0  0  0  0  0  0
   -0.9266   -2.4127    0.0000 O   0  0  0  0  0  0  0  0  0  0  0  0
   -0.6966   -0.9606    0.0000 N   0  0  0  0  0  0  0  0  0  0  0  0
    1.4229   -0.7057    0.0000 O   0  0  0  0  0  0  0  0  0  0  0  0
    0.5228    0.1374    0.0000 C   0  0  0  0  0  0  0  0  0  0  0  0
    0.2679    0.9220    0.0000 C   0  0  0  0  0  0  0  0  0  0  0  0
    0.8199    1.5351    0.0000 C   0  0  0  0  0  0  0  0  0  0  0  0
    1.6269    1.3636    0.0000 C   0  0  0  0  0  0  0  0  0  0  0  0
    1.8818    0.5790    0.0000 C   0  0  0  0  0  0  0  0  0  0  0  0
    1.3298   -0.0341    0.0000 C   0  0  0  0  0  0  0  0  0  0  0  0
   -1.3882   -0.0341    0.0000 C   0  0  0  0  0  0  0  0  0  0  0  0
   -1.9402    0.5790    0.0000 C   0  0  0  0  0  0  0  0  0  0  0  0
    4.2390    0.0000    0.0000 Na  0  3  0  0  0  0  0  0  0  0  0  0
  1  2  2  0  0  0  0
  2  3  1  0  0  0  0
  3  4  2  0  0  0  0
  4  5  1  0  0  0  0
  5  6  1  0  0  0  0
  6  7  1  0  0  0  0
  7  8  1  0  0  0  0
  8  9  2  0  0  0  0
  8 10  1  0  0  0  0
  5 10  1  0  0  0  0
  6 11  2  0  0  0  0
  5 12  1  0  0  0  0
 12 13  2  0  0  0  0
 13 14  1  0  0  0  0
 14 15  2  0  0  0  0
 15 16  1  0  0  0  0
 16 17  2  0  0  0  0
 12 17  1  0  0  0  0
  4 18  1  0  0  0  0
 18 19  2  0  0  0  0
  1 19  1  0  0  0  0
M  CHG  2   7  -1  20   1
M  END
>  <Name>
Phenytoin sodium

>  <CAS>
630-93-3

>  <Formula>
C15H11N2NaO2

>  <MolWt>
274.25 

>  <Bioactivity>
An anticonvulsant that is used to treat a wide variety of seizures. It is also an anti-arrhythmic and a muscle relaxant. The mechanism of therapeutic action is not clear, although several cellular actions have been described including effects on ion channels, active transport, and general membrane stabilization. The mechanism of its muscle relaxant effect appears to involve a reduction in the sensitivity of muscle spindles to stretch. Phenytoin has been proposed for several other therapeutic uses, but its use has been limited by its many adverse effects and interactions with other drugs.

>  <Pathways>
Membrane Transporter/Ion Channel

>  <Target>
Sodium Channel inhibitor

>  <Receptor>
Sodium Channel

>  <Reference>
1. Lenkowski PW, et al. Eur J Pharm Sci. 2004 Apr;21(5):635-44. 

$$$$
T1343L
  Mrv1561503291623562D          

 29 30  0  0  0  0            999 V2000
    0.0000    0.0000    0.0000 C   0  3  0  0  0  0  0  0  0  0  0  0
    0.0000   -0.8250    0.0000 C   0  0  0  0  0  0  0  0  0  0  0  0
    0.7145   -1.2375    0.0000 C   0  0  0  0  0  0  0  0  0  0  0  0
    0.7145   -2.0625    0.0000 C   0  0  0  0  0  0  0  0  0  0  0  0
    0.0000   -2.4750    0.0000 C   0  0  0  0  0  0  0  0  0  0  0  0
    0.0000   -3.3000    0.0000 N   0  0  0  0  0  0  0  0  0  0  0  0
   -0.7145   -3.7125    0.0000 C   0  0  0  0  0  0  0  0  0  0  0  0
    0.7145   -3.7125    0.0000 C   0  0  0  0  0  0  0  0  0  0  0  0
   -0.7145   -2.0625    0.0000 C   0  0  0  0  0  0  0  0  0  0  0  0
   -0.7145   -1.2375    0.0000 C   0  0  0  0  0  0  0  0  0  0  0  0
    0.7145    0.4125    0.0000 C   0  0  0  0  0  0  0  0  0  0  0  0
    0.7145    1.2375    0.0000 C   0  0  0  0  0  0  0  0  0  0  0  0
    1.4289    1.6500    0.0000 C   0  0  0  0  0  0  0  0  0  0  0  0
    2.1434    1.2375    0.0000 C   0  0  0  0  0  0  0  0  0  0  0  0
    2.1434    0.4125    0.0000 C   0  0  0  0  0  0  0  0  0  0  0  0
    1.4289    0.0000    0.0000 C   0  0  0  0  0  0  0  0  0  0  0  0
    2.8579    1.6500    0.0000 N   0  0  0  0  0  0  0  0  0  0  0  0
    2.8579    2.4750    0.0000 C   0  0  0  0  0  0  0  0  0  0  0  0
    3.5724    1.2375    0.0000 C   0  0  0  0  0  0  0  0  0  0  0  0
   -0.7145    0.4125    0.0000 C   0  0  0  0  0  0  0  0  0  0  0  0
   -1.4289   -0.0000    0.0000 C   0  0  0  0  0  0  0  0  0  0  0  0
   -2.1434    0.4125    0.0000 C   0  0  0  0  0  0  0  0  0  0  0  0
   -2.1434    1.2375    0.0000 C   0  0  0  0  0  0  0  0  0  0  0  0
   -2.8579    1.6500    0.0000 N   0  0  0  0  0  0  0  0  0  0  0  0
   -2.8579    2.4750    0.0000 C   0  0  0  0  0  0  0  0  0  0  0  0
   -3.5724    1.2375    0.0000 C   0  0  0  0  0  0  0  0  0  0  0  0
   -1.4289    1.6500    0.0000 C   0  0  0  0  0  0  0  0  0  0  0  0
   -0.7145    1.2375    0.0000 C   0  0  0  0  0  0  0  0  0  0  0  0
    5.9295    0.0000    0.0000 Cl  0  5  0  0  0  0  0  0  0  0  0  0
  1  2  1  0  0  0  0
  2  3  2  0  0  0  0
  3  4  1  0  0  0  0
  4  5  2  0  0  0  0
  5  6  1  0  0  0  0
  6  7  1  0  0  0  0
  6  8  1  0  0  0  0
  5  9  1  0  0  0  0
  9 10  2  0  0  0  0
  2 10  1  0  0  0  0
  1 11  1  0  0  0  0
 11 12  2  0  0  0  0
 12 13  1  0  0  0  0
 13 14  2  0  0  0  0
 14 15  1  0  0  0  0
 15 16  2  0  0  0  0
 11 16  1  0  0  0  0
 14 17  1  0  0  0  0
 17 18  1  0  0  0  0
 17 19  1  0  0  0  0
  1 20  1  0  0  0  0
 20 21  2  0  0  0  0
 21 22  1  0  0  0  0
 22 23  2  0  0  0  0
 23 24  1  0  0  0  0
 24 25  1  0  0  0  0
 24 26  1  0  0  0  0
 23 27  1  0  0  0  0
 27 28  2  0  0  0  0
 20 28  1  0  0  0  0
M  CHG  2   1   1  29  -1
M  END
>  <Name>
Crystal Violet

>  <CAS>
548-62-9

>  <Formula>
C25H30ClN3

>  <MolWt>
407.98 

>  <Bioactivity>
A dye that is a mixture of violet rosanilinis with antibacterial, antifungal, and anthelmintic properties.

>  <Pathways>
DNA Damage/DNA Repair

>  <Target>
DNA interaction

>  <Receptor>
DNA

>  <Reference>
1. Titford, M. Biotech. Histochem. 2007, 82 (4–5): 227–234.

$$$$
1949-20-8
  Mrv1561503291623562D          

 31 31  0  0  0  0            999 V2000
   -1.9544   -1.4742    0.0000 C   0  0  0  0  0  0  0  0  0  0  0  0
   -1.1339   -1.3880    0.0000 C   0  0  0  0  0  0  0  0  0  0  0  0
   -0.7983   -0.6343    0.0000 C   0  0  0  0  0  0  0  0  0  0  0  0
   -1.2108    0.0801    0.0000 N   0  0  0  0  0  0  0  0  0  0  0  0
   -0.6588    0.6932    0.0000 O   0  0  0  0  0  0  0  0  0  0  0  0
    0.0949    0.3577    0.0000 C   0  0  0  0  0  0  0  0  0  0  0  0
    0.0086   -0.4628    0.0000 N   0  0  0  0  0  0  0  0  0  0  0  0
    0.8093    0.7702    0.0000 C   0  0  0  0  0  0  0  0  0  0  0  0
    0.8093    1.5952    0.0000 C   0  0  0  0  0  0  0  0  0  0  0  0
    1.5238    2.0077    0.0000 N   0  3  0  0  0  0  0  0  0  0  0  0
    1.5238    2.8327    0.0000 C   0  0  0  0  0  0  0  0  0  0  0  0
    2.2383    3.2452    0.0000 C   0  0  0  0  0  0  0  0  0  0  0  0
    2.2383    1.5952    0.0000 C   0  0  0  0  0  0  0  0  0  0  0  0
    2.2383    0.7702    0.0000 C   0  0  0  0  0  0  0  0  0  0  0  0
   -0.6490   -2.0554    0.0000 C   0  0  0  0  0  0  0  0  0  0  0  0
   -0.9845   -2.8091    0.0000 C   0  0  0  0  0  0  0  0  0  0  0  0
   -1.8050   -2.8954    0.0000 C   0  0  0  0  0  0  0  0  0  0  0  0
   -2.2899   -2.2279    0.0000 C   0  0  0  0  0  0  0  0  0  0  0  0
    6.1865   -0.5898    0.0000 C   0  0  0  0  0  0  0  0  0  0  0  0
    5.7740    0.1246    0.0000 C   0  0  0  0  0  0  0  0  0  0  0  0
    5.0595   -0.2879    0.0000 O   0  0  0  0  0  0  0  0  0  0  0  0
    6.4885    0.5371    0.0000 C   0  0  0  0  0  0  0  0  0  0  0  0
    7.2029    0.1246    0.0000 O   0  0  0  0  0  0  0  0  0  0  0  0
    6.4885    1.3621    0.0000 O   0  0  0  0  0  0  0  0  0  0  0  0
    5.3615    0.8391    0.0000 C   0  0  0  0  0  0  0  0  0  0  0  0
    4.5365    0.8391    0.0000 C   0  0  0  0  0  0  0  0  0  0  0  0
    4.1240    0.1246    0.0000 O   0  0  0  0  0  0  0  0  0  0  0  0
    4.1240    1.5536    0.0000 O   0  0  0  0  0  0  0  0  0  0  0  0
    5.7740   -1.3043    0.0000 C   0  0  0  0  0  0  0  0  0  0  0  0
    6.1865   -2.0188    0.0000 O   0  5  0  0  0  0  0  0  0  0  0  0
    4.9490   -1.3043    0.0000 O   0  0  0  0  0  0  0  0  0  0  0  0
  1  2  2  0  0  0  0
  2  3  1  0  0  0  0
  3  4  2  0  0  0  0
  4  5  1  0  0  0  0
  5  6  1  0  0  0  0
  6  7  2  0  0  0  0
  3  7  1  0  0  0  0
  6  8  1  0  0  0  0
  8  9  1  0  0  0  0
  9 10  1  0  0  0  0
 10 11  1  0  0  0  0
 11 12  1  0  0  0  0
 10 13  1  0  0  0  0
 13 14  1  0  0  0  0
  2 15  1  0  0  0  0
 15 16  2  0  0  0  0
 16 17  1  0  0  0  0
 17 18  2  0  0  0  0
  1 18  1  0  0  0  0
 19 20  1  0  0  0  0
 20 21  1  0  0  0  0
 20 22  1  0  0  0  0
 22 23  2  0  0  0  0
 22 24  1  0  0  0  0
 20 25  1  0  0  0  0
 25 26  1  0  0  0  0
 26 27  2  0  0  0  0
 26 28  1  0  0  0  0
 19 29  1  0  0  0  0
 29 30  1  0  0  0  0
 29 31  2  0  0  0  0
M  CHG  2  10   1  30  -1
M  END
>  <Name>
Oxolamine citrate

>  <CAS>
1949-20-8

>  <Formula>
C14H19N3O·C6H8O7

>  <MolWt>
437.44 

>  <Bioactivity>
Oxolamine is a cough suppressant that is available as a generic drug in many jurisdictions.

>  <Pathways>
Others

>  <Target>
Others

>  <Receptor>
Others

>  <Reference>
1. Ceyhan BB, Karakurt S. Respir Med. 2002 Jan;96(1):61-3.

$$$$
T1402
  Mrv1561503291623562D          

 22 23  0  0  0  0            999 V2000
    2.8579   -1.6500    0.0000 C   0  0  0  0  0  0  0  0  0  0  0  0
    2.8579   -2.4750    0.0000 C   0  0  0  0  0  0  0  0  0  0  0  0
    2.1434   -2.8875    0.0000 C   0  0  0  0  0  0  0  0  0  0  0  0
    1.4289   -2.4750    0.0000 C   0  0  0  0  0  0  0  0  0  0  0  0
    1.4289   -1.6500    0.0000 C   0  0  0  0  0  0  0  0  0  0  0  0
    2.1434   -1.2375    0.0000 C   0  0  0  0  0  0  0  0  0  0  0  0
    2.1434   -0.4125    0.0000 O   0  0  0  0  0  0  0  0  0  0  0  0
    1.4289   -0.0000    0.0000 C   0  0  0  0  0  0  0  0  0  0  0  0
    0.7145    0.4125    0.0000 C   0  0  0  0  0  0  0  0  0  0  0  0
    0.7145    1.2375    0.0000 O   0  0  0  0  0  0  0  0  0  0  0  0
   -0.0000   -0.0000    0.0000 O   0  0  0  0  0  0  0  0  0  0  0  0
    1.0164   -0.7145    0.0000 C   0  0  0  0  0  0  0  0  0  0  0  0
    1.8414    0.7145    0.0000 C   0  0  0  0  0  0  0  0  0  0  0  0
    2.1434   -3.7125    0.0000 C   0  0  0  0  0  0  0  0  0  0  0  0
    1.4289   -4.1250    0.0000 C   0  0  0  0  0  0  0  0  0  0  0  0
    1.4289   -4.9500    0.0000 C   0  0  0  0  0  0  0  0  0  0  0  0
    0.7145   -5.3625    0.0000 C   0  0  0  0  0  0  0  0  0  0  0  0
   -0.0000   -4.9500    0.0000 C   0  0  0  0  0  0  0  0  0  0  0  0
   -0.7145   -5.3625    0.0000 Cl  0  0  0  0  0  0  0  0  0  0  0  0
   -0.0000   -4.1250    0.0000 C   0  0  0  0  0  0  0  0  0  0  0  0
    0.7145   -3.7125    0.0000 C   0  0  0  0  0  0  0  0  0  0  0  0
    2.8579   -4.1250    0.0000 O   0  0  0  0  0  0  0  0  0  0  0  0
  1  2  2  0  0  0  0
  2  3  1  0  0  0  0
  3  4  2  0  0  0  0
  4  5  1  0  0  0  0
  5  6  2  0  0  0  0
  1  6  1  0  0  0  0
  6  7  1  0  0  0  0
  7  8  1  0  0  0  0
  8  9  1  0  0  0  0
  9 10  1  0  0  0  0
  9 11  2  0  0  0  0
  8 12  1  0  0  0  0
  8 13  1  0  0  0  0
  3 14  1  0  0  0  0
 14 15  1  0  0  0  0
 15 16  2  0  0  0  0
 16 17  1  0  0  0  0
 17 18  2  0  0  0  0
 18 19  1  0  0  0  0
 18 20  1  0  0  0  0
 20 21  2  0  0  0  0
 15 21  1  0  0  0  0
 14 22  2  0  0  0  0
M  END
>  <Name>
Fenofibric acid

>  <CAS>
42017-89-0

>  <Formula>
C17H15ClO4

>  <MolWt>
318.75 

>  <Bioactivity>
An antilipemic agent which reduces both cholesterol and triglycerides in the blood. 

>  <Pathways>
Metabolism; Proteases/Proteasome

>  <Target>
MMP inhibitor;PPAR agonist

>  <Receptor>
MMP;PPAR?

>  <Reference>
1. Clavey V, et al. Cell Physiol Biochem. 1999;9(3):139-49. 

$$$$
93-14-1
  Mrv1561503291623562D          

 14 14  0  0  0  0            999 V2000
    0.7145   -2.0625    0.0000 C   0  0  0  0  0  0  0  0  0  0  0  0
   -0.0000   -2.4750    0.0000 C   0  0  0  0  0  0  0  0  0  0  0  0
   -0.7145   -2.0625    0.0000 C   0  0  0  0  0  0  0  0  0  0  0  0
   -0.7145   -1.2375    0.0000 C   0  0  0  0  0  0  0  0  0  0  0  0
   -0.0000   -0.8250    0.0000 C   0  0  0  0  0  0  0  0  0  0  0  0
    0.7145   -1.2375    0.0000 C   0  0  0  0  0  0  0  0  0  0  0  0
    1.4289   -0.8250    0.0000 O   0  0  0  0  0  0  0  0  0  0  0  0
    2.1434   -1.2375    0.0000 C   0  0  0  0  0  0  0  0  0  0  0  0
    2.8579   -0.8250    0.0000 C   0  0  0  0  0  0  0  0  0  0  0  0
    3.5724   -1.2375    0.0000 C   0  0  0  0  0  0  0  0  0  0  0  0
    4.2868   -0.8250    0.0000 O   0  0  0  0  0  0  0  0  0  0  0  0
    2.8579   -0.0000    0.0000 O   0  0  0  0  0  0  0  0  0  0  0  0
   -0.0000   -0.0000    0.0000 O   0  0  0  0  0  0  0  0  0  0  0  0
    0.7145    0.4125    0.0000 C   0  0  0  0  0  0  0  0  0  0  0  0
  1  2  2  0  0  0  0
  2  3  1  0  0  0  0
  3  4  2  0  0  0  0
  4  5  1  0  0  0  0
  5  6  2  0  0  0  0
  1  6  1  0  0  0  0
  6  7  1  0  0  0  0
  7  8  1  0  0  0  0
  8  9  1  0  0  0  0
  9 10  1  0  0  0  0
 10 11  1  0  0  0  0
  9 12  1  0  0  0  0
  5 13  1  0  0  0  0
 13 14  1  0  0  0  0
M  END
>  <Name>
Guaifenesin

>  <CAS>
93-14-1

>  <Formula>
C10H14O4

>  <MolWt>
198.22 

>  <Bioactivity>
An expectorant that also has some muscle relaxing action. It is used in many cough preparations.


>  <Pathways>
Others

>  <Target>
Others

>  <Receptor>
Others

>  <Reference>
1. Gong R, et al. J Chromatogr A. 2014 Oct 10;1363:242-9.

$$$$
T0740
  Mrv1561503291623562D          

 11  8  0  0  0  0            999 V2000
    0.4125    0.0000    0.0000 H   0  3  0  0  0  0  0  0  0  0  0  0
    5.6571    0.9526    0.0000 C   0  0  0  0  0  0  0  0  0  0  0  0
    5.2446    0.2382    0.0000 N   0  0  0  0  0  0  0  0  0  0  0  0
    5.6571   -0.4763    0.0000 C   0  0  0  0  0  0  0  0  0  0  0  0
    4.4196    0.2382    0.0000 C   0  0  0  0  0  0  0  0  0  0  0  0
    4.0071   -0.4763    0.0000 N   0  0  0  0  0  0  0  0  0  0  0  0
    3.1821   -0.4763    0.0000 C   0  0  0  0  0  0  0  0  0  0  0  0
    2.7696   -1.1908    0.0000 N   0  0  0  0  0  0  0  0  0  0  0  0
    2.7696    0.2382    0.0000 N   0  0  0  0  0  0  0  0  0  0  0  0
    4.0071    0.9526    0.0000 N   0  0  0  0  0  0  0  0  0  0  0  0
   -0.4125    0.0000    0.0000 Cl  0  5  0  0  0  0  0  0  0  0  0  0
  2  3  1  0  0  0  0
  3  4  1  0  0  0  0
  3  5  1  0  0  0  0
  5  6  1  0  0  0  0
  6  7  2  3  0  0  0
  7  8  1  0  0  0  0
  7  9  1  0  0  0  0
  5 10  2  0  0  0  0
M  CHG  2   1   1  11  -1
M  END
>  <Name>
Metformin HCl

>  <CAS>
1115-70-4

>  <Formula>
C4H12ClN5

>  <MolWt>
165.63 

>  <Bioactivity>
Metformin is a biguanide antihyperglycemic agent used for treating non-insulin-dependent diabetes mellitus (NIDDM). It improves glycemic control by decreasing hepatic glucose production, decreasing glucose absorption and increasing insulin-mediated glucose uptake. Metformin is the only oral antihyperglycemic agent that is not associated with weight gain. Metformin may induce weight loss and is the drug of choice for obese NIDDM patients. When used alone, metformin does not cause hypoglycemia; however, it may potentiate the hypoglycemic effects of sulfonylureas and insulin. Its main side effects are dyspepsia, nausea and diarrhea. Dose titration and/or use of smaller divided doses may decrease side effects. Metformin should be avoided in those with severely compromised renal function (creatinine clearance < 30 ml/min), acute/decompensated heart failure, severe liver disease and for 48 hours after the use of iodinated contrast dyes due to the risk of lactic acidosis. Lower doses should be used in the elderly and those with decreased renal function. Metformin decreases fasting plasma glucose, postprandial blood glucose and glycosolated hemoglobin (HbA1c) levels, which are reflective of the last 8-10 weeks of glucose control. Metformin may also have a positive effect on lipid levels. In 2012, a combination tablet of linagliptin plus metformin hydrochloride was marketed under the name Jentadueto for use in patients when treatment with both linagliptin and metformin is appropriate.

>  <Pathways>
MAPK Signaling

>  <Target>
MAPK activator

>  <Receptor>
5'-AMP-activated protein kinase

>  <Reference>
1. Kovacic S, et al. J Biol Chem. 2003 Oct 10;278(41):39422-7. Epub 2003 Jul 29. 

$$$$
2490-97-3
  Mrv1561503291623562D          

 13 12  0  0  0  0            999 V2000
    3.9039    1.4289    0.0000 C   0  0  0  0  0  0  0  0  0  0  0  0
    3.1895    1.8414    0.0000 C   0  0  0  0  0  0  0  0  0  0  0  0
    2.4750    1.4289    0.0000 N   0  0  0  0  0  0  0  0  0  0  0  0
    1.7605    1.8414    0.0000 C   0  0  0  0  0  0  0  0  0  0  0  0
    1.0461    1.4289    0.0000 C   0  0  0  0  0  0  0  0  0  0  0  0
    1.7605    2.6664    0.0000 O   0  0  0  0  0  0  0  0  0  0  0  0
    3.1895    2.6664    0.0000 C   0  0  0  0  0  0  0  0  0  0  0  0
    2.4750    3.0789    0.0000 O   0  0  0  0  0  0  0  0  0  0  0  0
    3.9039    3.0789    0.0000 O   0  0  0  0  0  0  0  0  0  0  0  0
    4.6184    1.8414    0.0000 C   0  0  0  0  0  0  0  0  0  0  0  0
    5.3329    1.4289    0.0000 C   0  0  0  0  0  0  0  0  0  0  0  0
    6.0474    1.8414    0.0000 N   0  0  0  0  0  0  0  0  0  0  0  0
    5.3329    0.6039    0.0000 O   0  0  0  0  0  0  0  0  0  0  0  0
  1  2  1  0  0  0  0
  2  3  1  0  0  0  0
  3  4  1  0  0  0  0
  4  5  1  0  0  0  0
  4  6  2  0  0  0  0
  2  7  1  0  0  0  0
  7  8  1  0  0  0  0
  7  9  2  0  0  0  0
  1 10  1  0  0  0  0
 10 11  1  0  0  0  0
 11 12  1  0  0  0  0
 11 13  2  0  0  0  0
M  END
>  <Name>
Aceglutamide

>  <CAS>
2490-97-3

>  <Formula>
C7H12N2O4

>  <MolWt>
188.18 

>  <Bioactivity>
Aceglutamide is a psychostimulant and nootropic used to improve memory and concentration. Chemically, it is the acetyl derivative of the amino acid L-glutamine.

>  <Pathways>
Amino Acids & Building Blocks

>  <Target>
Amino Acids and Derivatives

>  <Receptor>
N-acylamino acid racemase

>  <Reference>
1. Magnusson I, et al. Metabolism. 1989 Aug;38(8 Suppl 1):82-8.

$$$$
T0746
  Mrv1561503291623562D          

 11 11  0  0  0  0            999 V2000
   -0.0000    2.4750    0.0000 O   0  0  0  0  0  0  0  0  0  0  0  0
    0.7145    2.0625    0.0000 C   0  0  0  0  0  0  0  0  0  0  0  0
    0.7145    1.2375    0.0000 C   0  0  0  0  0  0  0  0  0  0  0  0
    1.4289    0.8250    0.0000 C   0  0  0  0  0  0  0  0  0  0  0  0
    1.4289    0.0000    0.0000 C   0  0  0  0  0  0  0  0  0  0  0  0
    0.7145   -0.4125    0.0000 N   0  0  0  0  0  0  0  0  0  0  0  0
    0.0000   -0.0000    0.0000 C   0  0  0  0  0  0  0  0  0  0  0  0
    0.0000    0.8250    0.0000 N   0  0  0  0  0  0  0  0  0  0  0  0
   -0.7145   -0.4125    0.0000 O   0  0  0  0  0  0  0  0  0  0  0  0
    2.1434   -0.4125    0.0000 O   0  0  0  0  0  0  0  0  0  0  0  0
    1.4289    2.4750    0.0000 O   0  0  0  0  0  0  0  0  0  0  0  0
  1  2  2  0  0  0  0
  2  3  1  0  0  0  0
  3  4  2  0  0  0  0
  4  5  1  0  0  0  0
  5  6  1  0  0  0  0
  6  7  1  0  0  0  0
  7  8  1  0  0  0  0
  3  8  1  0  0  0  0
  7  9  2  0  0  0  0
  5 10  2  0  0  0  0
  2 11  1  0  0  0  0
M  END
>  <Name>
Orotic acid

>  <CAS>
65-86-1

>  <Formula>
C5H4N2O4

>  <MolWt>
156.10 

>  <Bioactivity>
Orotic acid (OA) is an intermediate in pyrimidine metabolism. Orotic acid(6-Carboxyuracil) is a heterocyclic compound and an acid.

>  <Pathways>
DNA Damage/DNA Repair

>  <Target>
DHOase inhibitor

>  <Receptor>
DHOase

>  <Reference>
1. Takeuchi K, et al. J Toxicol Sci. 2015;40(2):181-91. 

$$$$
4180-23-8
  Mrv1561503291623562D          

 11 11  0  0  0  0            999 V2000
    1.4289    0.8250    0.0000 C   0  0  0  0  0  0  0  0  0  0  0  0
    1.4289    0.0000    0.0000 C   0  0  0  0  0  0  0  0  0  0  0  0
    0.7145   -0.4125    0.0000 C   0  0  0  0  0  0  0  0  0  0  0  0
   -0.0000    0.0000    0.0000 C   0  0  0  0  0  0  0  0  0  0  0  0
   -0.0000    0.8250    0.0000 C   0  0  0  0  0  0  0  0  0  0  0  0
    0.7145    1.2375    0.0000 C   0  0  0  0  0  0  0  0  0  0  0  0
    0.7145    2.0625    0.0000 C   0  0  0  0  0  0  0  0  0  0  0  0
    1.4289    2.4750    0.0000 C   0  0  0  0  0  0  0  0  0  0  0  0
    1.4289    3.3000    0.0000 C   0  0  0  0  0  0  0  0  0  0  0  0
    0.7145   -1.2375    0.0000 O   0  0  0  0  0  0  0  0  0  0  0  0
    1.4289   -1.6500    0.0000 C   0  0  0  0  0  0  0  0  0  0  0  0
  1  2  2  0  0  0  0
  2  3  1  0  0  0  0
  3  4  2  0  0  0  0
  4  5  1  0  0  0  0
  5  6  2  0  0  0  0
  1  6  1  0  0  0  0
  6  7  1  0  0  0  0
  7  8  2  0  0  0  0
  8  9  1  0  0  0  0
  3 10  1  0  0  0  0
 10 11  1  0  0  0  0
M  END
>  <Name>
Trans-Anethole

>  <CAS>
4180-23-8

>  <Formula>
C10H12O

>  <MolWt>
148.20 

>  <Bioactivity>
Anethole (anise camphor) is an organic compound that is widely used as a flavoring substance. It is a derivative of phenylpropene, a type of aromatic compound that occurs widely in nature, in essential oils. 

>  <Pathways>
Others

>  <Target>
Others

>  <Receptor>
Others

>  <Reference>
1. Ryu J, et al. J Agric Food Chem. 2005 Jul 27;53(15):5954-8.

$$$$
T0744
  Mrv1561503291623562D          

 27 24  0  0  0  0            999 V2000
   -1.9393   -0.2357    0.0000 C   0  0  0  0  0  0  0  0  0  0  0  0
   -2.6537    0.1768    0.0000 C   0  0  0  0  0  0  0  0  0  0  0  0
   -3.3682   -0.2357    0.0000 O   0  5  0  0  0  0  0  0  0  0  0  0
   -2.6537    1.0018    0.0000 O   0  0  0  0  0  0  0  0  0  0  0  0
   -1.2248    0.1768    0.0000 C   0  0  0  0  0  0  0  0  0  0  0  0
   -0.5103   -0.2357    0.0000 C   0  0  0  0  0  0  0  0  0  0  0  0
    0.2041    0.1768    0.0000 C   0  0  0  0  0  0  0  0  0  0  0  0
    0.9186   -0.2357    0.0000 C   0  0  0  0  0  0  0  0  0  0  0  0
    1.6331    0.1768    0.0000 C   0  0  0  0  0  0  0  0  0  0  0  0
    2.3475   -0.2357    0.0000 C   0  0  0  0  0  0  0  0  0  0  0  0
    3.0620    0.1768    0.0000 C   0  0  0  0  0  0  0  0  0  0  0  0
    3.7765   -0.2357    0.0000 C   0  0  0  0  0  0  0  0  0  0  0  0
    4.4910    0.1768    0.0000 C   0  0  0  0  0  0  0  0  0  0  0  0
    8.1592   -0.2856    0.0000 C   0  0  0  0  0  0  0  0  0  0  0  0
    7.4447    0.1269    0.0000 C   0  0  0  0  0  0  0  0  0  0  0  0
    6.7302   -0.2856    0.0000 O   0  5  0  0  0  0  0  0  0  0  0  0
    7.4447    0.9519    0.0000 O   0  0  0  0  0  0  0  0  0  0  0  0
    8.8737    0.1269    0.0000 C   0  0  0  0  0  0  0  0  0  0  0  0
    9.5881   -0.2856    0.0000 C   0  0  0  0  0  0  0  0  0  0  0  0
   10.3026    0.1269    0.0000 C   0  0  0  0  0  0  0  0  0  0  0  0
   11.0171   -0.2856    0.0000 C   0  0  0  0  0  0  0  0  0  0  0  0
   11.7315    0.1269    0.0000 C   0  0  0  0  0  0  0  0  0  0  0  0
   12.4460   -0.2856    0.0000 C   0  0  0  0  0  0  0  0  0  0  0  0
   13.1605    0.1269    0.0000 C   0  0  0  0  0  0  0  0  0  0  0  0
   13.8750   -0.2856    0.0000 C   0  0  0  0  0  0  0  0  0  0  0  0
   14.5894    0.1269    0.0000 C   0  0  0  0  0  0  0  0  0  0  0  0
   -4.0827   -0.6482    0.0000 Zn  0  2  0  0  0  0  0  0  0  0  0  0
  1  2  1  0  0  0  0
  2  3  1  0  0  0  0
  2  4  2  0  0  0  0
  1  5  1  0  0  0  0
  5  6  1  0  0  0  0
  6  7  1  0  0  0  0
  7  8  1  0  0  0  0
  8  9  1  0  0  0  0
  9 10  1  0  0  0  0
 10 11  1  0  0  0  0
 11 12  1  0  0  0  0
 12 13  2  0  0  0  0
 14 15  1  0  0  0  0
 15 16  1  0  0  0  0
 15 17  2  0  0  0  0
 14 18  1  0  0  0  0
 18 19  1  0  0  0  0
 19 20  1  0  0  0  0
 20 21  1  0  0  0  0
 21 22  1  0  0  0  0
 22 23  1  0  0  0  0
 23 24  1  0  0  0  0
 24 25  1  0  0  0  0
 25 26  2  0  0  0  0
M  CHG  3   3  -1  16  -1  27   2
M  END
>  <Name>
Zinc undecylenate

>  <CAS>
557-08-4

>  <Formula>
C22H38O4Zn

>  <MolWt>
431.92 

>  <Bioactivity>
A synthetic antifungal agent.


>  <Pathways>
Microbiology & Virology

>  <Target>
Antifungal

>  <Receptor>
Others

>  <Reference>
1. Lin MC, et al. J Chromatogr A. 2006 Jun 30;1119(1-2):264-9.

$$$$
116-43-8
  Mrv1561503291623562D          

 23 24  0  0  0  0            999 V2000
   -2.1434    2.8875    0.0000 C   0  0  0  0  0  0  0  0  0  0  0  0
   -1.4289    2.4750    0.0000 C   0  0  0  0  0  0  0  0  0  0  0  0
   -1.4289    1.6500    0.0000 C   0  0  0  0  0  0  0  0  0  0  0  0
   -2.1434    1.2375    0.0000 C   0  0  0  0  0  0  0  0  0  0  0  0
   -2.8579    1.6500    0.0000 C   0  0  0  0  0  0  0  0  0  0  0  0
   -2.8579    2.4750    0.0000 C   0  0  0  0  0  0  0  0  0  0  0  0
   -3.5724    2.8875    0.0000 S   0  0  0  0  0  0  0  0  0  0  0  0
   -4.2868    3.3000    0.0000 N   0  0  0  0  0  0  0  0  0  0  0  0
   -5.0013    2.8875    0.0000 C   0  0  0  0  0  0  0  0  0  0  0  0
   -5.0875    2.0670    0.0000 N   0  0  0  0  0  0  0  0  0  0  0  0
   -5.8945    1.8955    0.0000 C   0  0  0  0  0  0  0  0  0  0  0  0
   -6.3070    2.6100    0.0000 C   0  0  0  0  0  0  0  0  0  0  0  0
   -5.7550    3.2231    0.0000 S   0  0  0  0  0  0  0  0  0  0  0  0
   -3.9849    2.1730    0.0000 O   0  0  0  0  0  0  0  0  0  0  0  0
   -3.1599    3.6020    0.0000 O   0  0  0  0  0  0  0  0  0  0  0  0
   -0.7145    1.2375    0.0000 N   0  0  0  0  0  0  0  0  0  0  0  0
    0.0000    1.6500    0.0000 C   0  0  0  0  0  0  0  0  0  0  0  0
    0.7145    1.2375    0.0000 C   0  0  0  0  0  0  0  0  0  0  0  0
    1.4289    1.6500    0.0000 C   0  0  0  0  0  0  0  0  0  0  0  0
    2.1434    1.2375    0.0000 C   0  0  0  0  0  0  0  0  0  0  0  0
    2.8579    1.6500    0.0000 O   0  0  0  0  0  0  0  0  0  0  0  0
    2.1434    0.4125    0.0000 O   0  0  0  0  0  0  0  0  0  0  0  0
   -0.0000    2.4750    0.0000 O   0  0  0  0  0  0  0  0  0  0  0  0
  1  2  2  0  0  0  0
  2  3  1  0  0  0  0
  3  4  2  0  0  0  0
  4  5  1  0  0  0  0
  5  6  2  0  0  0  0
  1  6  1  0  0  0  0
  6  7  1  0  0  0  0
  7  8  1  0  0  0  0
  8  9  1  0  0  0  0
  9 10  2  0  0  0  0
 10 11  1  0  0  0  0
 11 12  2  0  0  0  0
 12 13  1  0  0  0  0
  9 13  1  0  0  0  0
  7 14  2  0  0  0  0
  7 15  2  0  0  0  0
  3 16  1  0  0  0  0
 16 17  1  0  0  0  0
 17 18  1  0  0  0  0
 18 19  1  0  0  0  0
 19 20  1  0  0  0  0
 20 21  1  0  0  0  0
 20 22  2  0  0  0  0
 17 23  2  0  0  0  0
M  END
>  <Name>
Succinylsulfathiazole 

>  <CAS>
116-43-8

>  <Formula>
C13H13N3O5S2

>  <MolWt>
355.39 

>  <Bioactivity>
Sulfathiazole is a short-acting sulfa drug. It used to be a common oral and topical antimicrobial until less toxic alternatives were discovered. It is still occasionally used, sometimes in combination with sulfabenzamide and sulfacetamide.


>  <Pathways>
Enzyme

>  <Target>
Antibiotic;DHPS inhibitor

>  <Receptor>
Dihydropteroate synthetase;DHPS

>  <Reference>
1. WRIGHT LD, SKEGGS HR. Am J Med Sci. 1946 Sep;212(3):312-4.

$$$$
137-66-6
  Mrv1561503291623562D          

 29 29  0  0  0  0            999 V2000
    2.9496  -12.2213    0.0000 C   0  0  0  0  0  0  0  0  0  0  0  0
    2.2352  -11.8088    0.0000 C   0  0  0  0  0  0  0  0  0  0  0  0
    1.5207  -12.2213    0.0000 C   0  0  0  0  0  0  0  0  0  0  0  0
    0.8062  -11.8088    0.0000 C   0  0  0  0  0  0  0  0  0  0  0  0
    0.0918  -12.2213    0.0000 C   0  0  0  0  0  0  0  0  0  0  0  0
   -0.6227  -11.8088    0.0000 C   0  0  0  0  0  0  0  0  0  0  0  0
   -1.3372  -12.2213    0.0000 C   0  0  0  0  0  0  0  0  0  0  0  0
   -2.0517  -11.8088    0.0000 C   0  0  0  0  0  0  0  0  0  0  0  0
   -2.7661  -12.2213    0.0000 C   0  0  0  0  0  0  0  0  0  0  0  0
    3.6641  -11.8088    0.0000 C   0  0  0  0  0  0  0  0  0  0  0  0
    4.3786  -12.2213    0.0000 C   0  0  0  0  0  0  0  0  0  0  0  0
    5.0930  -11.8088    0.0000 C   0  0  0  0  0  0  0  0  0  0  0  0
    5.8075  -12.2213    0.0000 C   0  0  0  0  0  0  0  0  0  0  0  0
    6.5220  -11.8088    0.0000 C   0  0  0  0  0  0  0  0  0  0  0  0
    7.2365  -12.2213    0.0000 C   0  0  0  0  0  0  0  0  0  0  0  0
    7.9509  -11.8088    0.0000 C   0  0  0  0  0  0  0  0  0  0  0  0
    8.6654  -12.2213    0.0000 O   0  0  0  0  0  0  0  0  0  0  0  0
    9.3799  -11.8088    0.0000 C   0  0  0  0  0  0  0  0  0  0  0  0
   10.0943  -12.2213    0.0000 C   0  0  0  0  0  0  0  0  0  0  0  0
   10.0943  -13.0463    0.0000 O   0  0  0  0  0  0  0  0  0  0  0  0
   10.8088  -11.8088    0.0000 C   0  0  0  0  0  0  0  0  0  0  0  0
   10.8951  -10.9883    0.0000 O   0  0  0  0  0  0  0  0  0  0  0  0
   11.7020  -10.8168    0.0000 C   0  0  0  0  0  0  0  0  0  0  0  0
   12.1145  -11.5313    0.0000 C   0  0  0  0  0  0  0  0  0  0  0  0
   12.9350  -11.6175    0.0000 O   0  0  0  0  0  0  0  0  0  0  0  0
   11.5625  -12.1443    0.0000 C   0  0  0  0  0  0  0  0  0  0  0  0
   11.7340  -12.9513    0.0000 O   0  0  0  0  0  0  0  0  0  0  0  0
   12.0376  -10.0631    0.0000 O   0  0  0  0  0  0  0  0  0  0  0  0
    7.9509  -10.9838    0.0000 O   0  0  0  0  0  0  0  0  0  0  0  0
  1  2  1  0  0  0  0
  2  3  1  0  0  0  0
  3  4  1  0  0  0  0
  4  5  1  0  0  0  0
  5  6  1  0  0  0  0
  6  7  1  0  0  0  0
  7  8  1  0  0  0  0
  8  9  1  0  0  0  0
  1 10  1  0  0  0  0
 10 11  1  0  0  0  0
 11 12  1  0  0  0  0
 12 13  1  0  0  0  0
 13 14  1  0  0  0  0
 14 15  1  0  0  0  0
 15 16  1  0  0  0  0
 16 17  1  0  0  0  0
 17 18  1  0  0  0  0
 18 19  1  0  0  0  0
 19 20  1  0  0  0  0
 19 21  1  0  0  0  0
 21 22  1  0  0  0  0
 22 23  1  0  0  0  0
 23 24  2  0  0  0  0
 24 25  1  0  0  0  0
 24 26  1  0  0  0  0
 21 26  1  0  0  0  0
 26 27  2  0  0  0  0
 23 28  1  0  0  0  0
 16 29  2  0  0  0  0
M  END
>  <Name>
L-Ascorbyl 6-palmitate

>  <CAS>
137-66-6

>  <Formula>
C22H38O7

>  <MolWt>
414.53 

>  <Bioactivity>
Ascorbyl palmitate is an ester formed from ascorbic acid and palmitic acid creating a fat-soluble form of vitamin C.

>  <Pathways>
Vitamin

>  <Target>
VC

>  <Receptor>
VC

>  <Reference>
1. Johnston CS, et al. Nutr Res, 1994, 14(10), 1465-1471.

$$$$
36322-90-4
  Mrv1561503291623562D          

 23 25  0  0  0  0            999 V2000
    1.4289   -0.0000    0.0000 C   0  0  0  0  0  0  0  0  0  0  0  0
    2.1434   -0.4125    0.0000 C   0  0  0  0  0  0  0  0  0  0  0  0
    2.8579   -0.0000    0.0000 S   0  0  0  0  0  0  0  0  0  0  0  0
    2.3276    0.6320    0.0000 O   0  0  0  0  0  0  0  0  0  0  0  0
    3.3882    0.6320    0.0000 O   0  0  0  0  0  0  0  0  0  0  0  0
    3.5724   -0.4125    0.0000 N   0  0  0  0  0  0  0  0  0  0  0  0
    3.5724   -1.2375    0.0000 C   0  0  0  0  0  0  0  0  0  0  0  0
    2.8579   -1.6500    0.0000 C   0  0  0  0  0  0  0  0  0  0  0  0
    2.8579   -2.4750    0.0000 O   0  0  0  0  0  0  0  0  0  0  0  0
    2.1434   -1.2375    0.0000 C   0  0  0  0  0  0  0  0  0  0  0  0
    1.4289   -1.6500    0.0000 C   0  0  0  0  0  0  0  0  0  0  0  0
    0.7145   -1.2375    0.0000 C   0  0  0  0  0  0  0  0  0  0  0  0
    0.7145   -0.4125    0.0000 C   0  0  0  0  0  0  0  0  0  0  0  0
    4.2868   -1.6500    0.0000 C   0  0  0  0  0  0  0  0  0  0  0  0
    4.2868   -2.4750    0.0000 O   0  0  0  0  0  0  0  0  0  0  0  0
    5.0013   -1.2375    0.0000 N   0  0  0  0  0  0  0  0  0  0  0  0
    5.7158   -1.6500    0.0000 C   0  0  0  0  0  0  0  0  0  0  0  0
    6.4302   -1.2375    0.0000 C   0  0  0  0  0  0  0  0  0  0  0  0
    7.1447   -1.6500    0.0000 C   0  0  0  0  0  0  0  0  0  0  0  0
    7.1447   -2.4750    0.0000 C   0  0  0  0  0  0  0  0  0  0  0  0
    6.4302   -2.8875    0.0000 C   0  0  0  0  0  0  0  0  0  0  0  0
    5.7158   -2.4750    0.0000 N   0  0  0  0  0  0  0  0  0  0  0  0
    4.2868   -0.0000    0.0000 C   0  0  0  0  0  0  0  0  0  0  0  0
  1  2  2  0  0  0  0
  2  3  1  0  0  0  0
  3  4  2  0  0  0  0
  3  5  2  0  0  0  0
  3  6  1  0  0  0  0
  6  7  1  0  0  0  0
  7  8  1  0  0  0  0
  8  9  2  0  0  0  0
  8 10  1  0  0  0  0
  2 10  1  0  0  0  0
 10 11  2  0  0  0  0
 11 12  1  0  0  0  0
 12 13  2  0  0  0  0
  1 13  1  0  0  0  0
  7 14  2  0  0  0  0
 14 15  1  0  0  0  0
 14 16  1  0  0  0  0
 16 17  1  0  0  0  0
 17 18  2  0  0  0  0
 18 19  1  0  0  0  0
 19 20  2  0  0  0  0
 20 21  1  0  0  0  0
 21 22  2  0  0  0  0
 17 22  1  0  0  0  0
  6 23  1  0  0  0  0
M  END
>  <Name>
Piroxicam

>  <CAS>
36322-90-4

>  <Formula>
C15H13N3O4S

>  <MolWt>
331.35 

>  <Bioactivity>
Piroxicam is a non-selective COX inhibitor

>  <Pathways>
Neuroscience

>  <Target>
COX inhibitor

>  <Receptor>
Prostaglandin G/H synthase

>  <Reference>
1. Blanco FJ, et al. J Rheumatol. 1999 Jun;26(6):1366-73.

$$$$
57-88-5
  Mrv1561503291623562D          

 28 31  0  0  1  0            999 V2000
   -0.5127   -2.9031    0.0000 C   0  0  1  0  0  0  0  0  0  0  0  0
   -0.7676   -2.1184    0.0000 C   0  0  1  0  0  0  0  0  0  0  0  0
   -0.2156   -1.5053    0.0000 C   0  0  1  0  0  0  0  0  0  0  0  0
   -0.4705   -0.7207    0.0000 C   0  0  2  0  0  0  0  0  0  0  0  0
   -1.2775   -0.5492    0.0000 C   0  0  0  0  0  0  0  0  0  0  0  0
   -1.8296   -1.1623    0.0000 C   0  0  0  0  0  0  0  0  0  0  0  0
   -1.5746   -1.9469    0.0000 C   0  0  0  0  0  0  0  0  0  0  0  0
   -1.5325    0.2354    0.0000 C   0  0  0  0  0  0  0  0  0  0  0  0
   -0.9804    0.8485    0.0000 C   0  0  1  0  0  0  0  0  0  0  0  0
   -1.2354    1.6331    0.0000 O   0  0  0  0  0  0  0  0  0  0  0  0
   -0.1735    0.6770    0.0000 C   0  0  0  0  0  0  0  0  0  0  0  0
    0.0815   -0.1076    0.0000 C   0  0  0  0  0  0  0  0  0  0  0  0
    0.3364   -0.8922    0.0000 C   0  0  0  0  0  0  0  0  0  0  0  0
    0.5914   -1.6769    0.0000 C   0  0  0  0  0  0  0  0  0  0  0  0
    0.8463   -2.4615    0.0000 C   0  0  0  0  0  0  0  0  0  0  0  0
    0.2943   -3.0746    0.0000 C   0  0  2  0  0  0  0  0  0  0  0  0
    0.3805   -3.8951    0.0000 C   0  0  1  0  0  0  0  0  0  0  0  0
    1.0950   -4.3076    0.0000 C   0  0  1  0  0  0  0  0  0  0  0  0
    1.8094   -3.8951    0.0000 C   0  0  0  0  0  0  0  0  0  0  0  0
    2.5239   -4.3076    0.0000 C   0  0  0  0  0  0  0  0  0  0  0  0
    3.2384   -3.8951    0.0000 C   0  0  0  0  0  0  0  0  0  0  0  0
    3.9529   -4.3076    0.0000 C   0  0  0  0  0  0  0  0  0  0  0  0
    4.6673   -3.8951    0.0000 C   0  0  0  0  0  0  0  0  0  0  0  0
    3.9529   -5.1326    0.0000 C   0  0  0  0  0  0  0  0  0  0  0  0
    1.0950   -5.1326    0.0000 C   0  0  0  0  0  0  0  0  0  0  0  0
   -0.3732   -4.2306    0.0000 C   0  0  0  0  0  0  0  0  0  0  0  0
   -0.9252   -3.6175    0.0000 C   0  0  0  0  0  0  0  0  0  0  0  0
    1.0789   -3.3295    0.0000 C   0  0  0  0  0  0  0  0  0  0  0  0
  1  2  1  0  0  0  0
  2  3  1  0  0  0  0
  3  4  1  0  0  0  0
  4  5  1  0  0  0  0
  5  6  2  0  0  0  0
  6  7  1  0  0  0  0
  2  7  1  6  0  0  0
  5  8  1  0  0  0  0
  8  9  1  0  0  0  0
  9 10  1  1  0  0  0
  9 11  1  0  0  0  0
 11 12  1  0  0  0  0
  4 12  1  0  0  0  0
  4 13  1  1  0  0  0
  3 14  1  1  0  0  0
 14 15  1  0  0  0  0
 15 16  1  0  0  0  0
  1 16  1  0  0  0  0
 16 17  1  0  0  0  0
 17 18  1  1  0  0  0
 18 19  1  0  0  0  0
 19 20  1  0  0  0  0
 20 21  1  0  0  0  0
 21 22  1  0  0  0  0
 22 23  1  0  0  0  0
 22 24  1  0  0  0  0
 18 25  1  1  0  0  0
 17 26  1  0  0  0  0
 26 27  1  0  0  0  0
  1 27  1  1  0  0  0
 16 28  1  1  0  0  0
M  END
>  <Name>
Cholesterol

>  <CAS>
57-88-5

>  <Formula>
C27H46O

>  <MolWt>
386.65 

>  <Bioactivity>
The principal sterol of all higher animals, distributed in body tissues, especially the brain and spinal cord, and in animal fats and oils.


>  <Pathways>
Immunology/Inflammation

>  <Target>
MRP inhibitor

>  <Receptor>
MRP1;ROR-alpha

>  <Reference>
1. Wu Y, et al. Biochem Biophys Res Commun. 2015 Feb 20;457(4):614-20. 

$$$$
T0885
  Mrv1561503291623562D          

 17 18  0  0  0  0            999 V2000
    5.6091    3.1152    0.0000 C   0  0  0  0  0  0  0  0  0  0  0  0
    6.3235    3.5277    0.0000 C   0  0  0  0  0  0  0  0  0  0  0  0
    7.0380    3.1152    0.0000 C   0  0  0  0  0  0  0  0  0  0  0  0
    7.0380    2.2902    0.0000 C   0  0  0  0  0  0  0  0  0  0  0  0
    6.3235    1.8777    0.0000 C   0  0  0  0  0  0  0  0  0  0  0  0
    5.6091    2.2902    0.0000 C   0  0  0  0  0  0  0  0  0  0  0  0
    4.8946    1.8777    0.0000 S   0  0  0  0  0  0  0  0  0  0  0  0
    4.1801    1.4652    0.0000 N   0  0  0  0  0  0  0  0  0  0  0  0
    4.1801    0.6402    0.0000 C   0  0  0  0  0  0  0  0  0  0  0  0
    4.8476    0.1553    0.0000 N   0  0  0  0  0  0  0  0  0  0  0  0
    4.5926   -0.6294    0.0000 O   0  0  0  0  0  0  0  0  0  0  0  0
    3.7676   -0.6294    0.0000 C   0  0  0  0  0  0  0  0  0  0  0  0
    3.5127    0.1553    0.0000 C   0  0  0  0  0  0  0  0  0  0  0  0
    3.2827   -1.2968    0.0000 C   0  0  0  0  0  0  0  0  0  0  0  0
    5.3071    1.1632    0.0000 O   0  0  0  0  0  0  0  0  0  0  0  0
    4.4821    2.5922    0.0000 O   0  0  0  0  0  0  0  0  0  0  0  0
    7.7525    3.5277    0.0000 N   0  0  0  0  0  0  0  0  0  0  0  0
  1  2  2  0  0  0  0
  2  3  1  0  0  0  0
  3  4  2  0  0  0  0
  4  5  1  0  0  0  0
  5  6  2  0  0  0  0
  1  6  1  0  0  0  0
  6  7  1  0  0  0  0
  7  8  1  0  0  0  0
  8  9  1  0  0  0  0
  9 10  2  0  0  0  0
 10 11  1  0  0  0  0
 11 12  1  0  0  0  0
 12 13  2  0  0  0  0
  9 13  1  0  0  0  0
 12 14  1  0  0  0  0
  7 15  2  0  0  0  0
  7 16  2  0  0  0  0
  3 17  1  0  0  0  0
M  END
>  <Name>
Sulfamethoxazole

>  <CAS>
723-46-6

>  <Formula>
C10H11N3O3S

>  <MolWt>
253.28 

>  <Bioactivity>
A bacteriostatic antibacterial agent that interferes with folic acid synthesis in susceptible bacteria. Its broad spectrum of activity has been limited by the development of resistance. (From Martindale, The Extra Pharmacopoeia, 30th ed, p208) 

>  <Pathways>
Enzyme

>  <Target>
DHPS inhibitor;FolC inhibitor

>  <Receptor>
DHPS;FolC

>  <Reference>
1. Winstanley PA, et al. Antimicrob Agents Chemother. 1995 Apr;39(4):948-52.

$$$$
T0901
  Mrv1561503291623562D          

  8  7  0  0  0  0            999 V2000
    0.8250   -1.6500    0.0000 C   0  0  0  0  0  0  0  0  0  0  0  0
    0.8250   -0.8250    0.0000 C   0  0  0  0  0  0  0  0  0  0  0  0
    1.6500   -0.8250    0.0000 C   0  0  0  0  0  0  0  0  0  0  0  0
    0.0000   -0.8250    0.0000 O   0  0  0  0  0  0  0  0  0  0  0  0
    0.8250    0.0000    0.0000 C   0  0  0  0  0  0  0  0  0  0  0  0
    0.8250    0.8250    0.0000 Cl  0  0  0  0  0  0  0  0  0  0  0  0
    1.6500   -0.0000    0.0000 Cl  0  0  0  0  0  0  0  0  0  0  0  0
    0.0000    0.0000    0.0000 Cl  0  0  0  0  0  0  0  0  0  0  0  0
  1  2  1  0  0  0  0
  2  3  1  0  0  0  0
  2  4  1  0  0  0  0
  2  5  1  0  0  0  0
  5  6  1  0  0  0  0
  5  7  1  0  0  0  0
  5  8  1  0  0  0  0
M  END
>  <Name>
Chlorobutanol

>  <CAS>
57-15-8

>  <Formula>
C4H7ClO.1/2H2O

>  <MolWt>
186.46 

>  <Bioactivity>
Chlorobutanol is a chemical preservative, sedative hypnotic and weak local anaesthetic similar in nature to chloral hydrate. It has antibacterial and antifungal properties. Chlorobutanol is typically used at a concentration of 0.5% where it lends long term stability to multi-ingredient formulations.

>  <Pathways>
Microbiology & Virology

>  <Target>
Antibiotic

>  <Receptor>
Others

>  <Reference>
1. Chen SL, et al. Thromb Haemost. 1990 Nov 30;64(3):473-7.

$$$$
94-25-7
  Mrv1561503291623562D          

 14 14  0  0  0  0            999 V2000
   -1.4289    0.8250    0.0000 C   0  0  0  0  0  0  0  0  0  0  0  0
   -1.4289    0.0000    0.0000 C   0  0  0  0  0  0  0  0  0  0  0  0
   -0.7145   -0.4125    0.0000 C   0  0  0  0  0  0  0  0  0  0  0  0
    0.0000    0.0000    0.0000 O   0  0  0  0  0  0  0  0  0  0  0  0
    0.7145   -0.4125    0.0000 C   0  0  0  0  0  0  0  0  0  0  0  0
    1.4289    0.0000    0.0000 C   0  0  0  0  0  0  0  0  0  0  0  0
    2.1434   -0.4125    0.0000 C   0  0  0  0  0  0  0  0  0  0  0  0
    2.8579    0.0000    0.0000 C   0  0  0  0  0  0  0  0  0  0  0  0
   -0.7145   -1.2375    0.0000 O   0  0  0  0  0  0  0  0  0  0  0  0
   -2.1434   -0.4125    0.0000 C   0  0  0  0  0  0  0  0  0  0  0  0
   -2.8579    0.0000    0.0000 C   0  0  0  0  0  0  0  0  0  0  0  0
   -2.8579    0.8250    0.0000 C   0  0  0  0  0  0  0  0  0  0  0  0
   -2.1434    1.2375    0.0000 C   0  0  0  0  0  0  0  0  0  0  0  0
   -3.5724    1.2375    0.0000 N   0  0  0  0  0  0  0  0  0  0  0  0
  1  2  2  0  0  0  0
  2  3  1  0  0  0  0
  3  4  1  0  0  0  0
  4  5  1  0  0  0  0
  5  6  1  0  0  0  0
  6  7  1  0  0  0  0
  7  8  1  0  0  0  0
  3  9  2  0  0  0  0
  2 10  1  0  0  0  0
 10 11  2  0  0  0  0
 11 12  1  0  0  0  0
 12 13  2  0  0  0  0
  1 13  1  0  0  0  0
 12 14  1  0  0  0  0
M  END
>  <Name>
Butyl 4-aminobenzoate

>  <CAS>
94-25-7

>  <Formula>
C11H15NO2

>  <MolWt>
193.24 

>  <Bioactivity>
It is the ester of 4-aminobenzoic acid and butanol. It's of Low Solubility , and It's been reported that it's more Effective than its corresponding Ethyl Ester When applied to intact Mucous Membrane

>  <Pathways>
Membrane Transporter/Ion Channel

>  <Target>
Sodium Channel inhibitor

>  <Receptor>
Sodium Channel

>  <Reference>
1. Tzimopoulos D, et al. J Inorg Biochem. 2010 Apr;104(4):423-30. 

$$$$
151-67-7
  Mrv1561503291623562D          

  7  6  0  0  0  0            999 V2000
    0.8250   -0.8250    0.0000 C   0  0  0  0  0  0  0  0  0  0  0  0
    0.1105   -1.2375    0.0000 Br  0  0  0  0  0  0  0  0  0  0  0  0
    1.5395   -1.2375    0.0000 Cl  0  0  0  0  0  0  0  0  0  0  0  0
    0.8250    0.0000    0.0000 C   0  0  0  0  0  0  0  0  0  0  0  0
    0.8250    0.8250    0.0000 F   0  0  0  0  0  0  0  0  0  0  0  0
    1.6500   -0.0000    0.0000 F   0  0  0  0  0  0  0  0  0  0  0  0
    0.0000    0.0000    0.0000 F   0  0  0  0  0  0  0  0  0  0  0  0
  1  2  1  0  0  0  0
  1  3  1  0  0  0  0
  1  4  1  0  0  0  0
  4  5  1  0  0  0  0
  4  6  1  0  0  0  0
  4  7  1  0  0  0  0
M  END
>  <Name>
Anestan

>  <CAS>
151-67-7

>  <Formula>
C2HBrClF3

>  <MolWt>
197.39 

>  <Bioactivity>
A nonflammable, halogenated, hydrocarbon anesthetic that provides relatively rapid induction with little or no excitement. Analgesia may not be adequate. NITROUS OXIDE is often given concomitantly. Because halothane may not produce sufficient muscle relaxation, supplemental neuromuscular blocking agents may be required. (From AMA Drug Evaluations Annual, 1994, p178)

>  <Pathways>
Membrane Transporter/Ion Channel; Neuroscience

>  <Target>
GABAR modulator;GluR antagonist; Potassium Channel inhibitor

>  <Receptor>
Glycine receptor;GABAR;NMDA receptor ;Potassium Channel

>  <Reference>
1. Namba T, et al. Eur J Pharmacol. 2000 Apr 28;395(2):95-101. 

$$$$
T1392
  Mrv1561503291623562D          

 25 29  0  0  0  0            999 V2000
    1.6587   -2.7301    0.0000 C   0  0  0  0  0  0  0  0  0  0  0  0
    2.4792   -2.8161    0.0000 C   0  0  0  0  0  0  0  0  0  0  0  0
    2.9639   -2.1485    0.0000 C   0  0  0  0  0  0  0  0  0  0  0  0
    2.6281   -1.3949    0.0000 C   0  0  0  0  0  0  0  0  0  0  0  0
    1.8076   -1.3089    0.0000 C   0  0  0  0  0  0  0  0  0  0  0  0
    1.3229   -1.9765    0.0000 C   0  0  0  0  0  0  0  0  0  0  0  0
    0.5024   -1.8905    0.0000 O   0  0  0  0  0  0  0  0  0  0  0  0
    3.7844   -2.2345    0.0000 C   0  0  0  0  0  0  0  0  0  0  0  0
    3.5293   -1.4500    0.0000 O   0  0  0  0  0  0  0  0  0  0  0  0
    4.1966   -0.9648    0.0000 C   0  0  0  0  0  0  0  0  0  0  0  0
    4.8641   -1.4496    0.0000 C   0  0  0  0  0  0  0  0  0  0  0  0
    5.6711   -1.2778    0.0000 C   0  0  0  0  0  0  0  0  0  0  0  0
    6.2233   -1.8907    0.0000 C   0  0  0  0  0  0  0  0  0  0  0  0
    5.9686   -2.6754    0.0000 C   0  0  0  0  0  0  0  0  0  0  0  0
    5.1616   -2.8472    0.0000 C   0  0  0  0  0  0  0  0  0  0  0  0
    4.6094   -2.2343    0.0000 C   0  0  0  0  0  0  0  0  0  0  0  0
    4.1963   -0.1398    0.0000 O   0  0  0  0  0  0  0  0  0  0  0  0
    4.1202   -2.9881    0.0000 C   0  0  0  0  0  0  0  0  0  0  0  0
    4.9407   -3.0741    0.0000 C   0  0  0  0  0  0  0  0  0  0  0  0
    5.2765   -3.8277    0.0000 C   0  0  0  0  0  0  0  0  0  0  0  0
    4.7917   -4.4952    0.0000 C   0  0  0  0  0  0  0  0  0  0  0  0
    3.9712   -4.4092    0.0000 C   0  0  0  0  0  0  0  0  0  0  0  0
    3.6355   -3.6557    0.0000 C   0  0  0  0  0  0  0  0  0  0  0  0
    2.8150   -3.5697    0.0000 O   0  0  0  0  0  0  0  0  0  0  0  0
    5.1275   -5.2488    0.0000 O   0  0  0  0  0  0  0  0  0  0  0  0
  1  2  2  0  0  0  0
  2  3  1  0  0  0  0
  3  4  2  0  0  0  0
  4  5  1  0  0  0  0
  5  6  2  0  0  0  0
  1  6  1  0  0  0  0
  6  7  1  0  0  0  0
  3  8  1  0  0  0  0
  8  9  1  0  0  0  0
  9 10  1  0  0  0  0
 10 11  1  0  0  0  0
 11 12  2  0  0  0  0
 12 13  1  0  0  0  0
 13 14  2  0  0  0  0
 14 15  1  0  0  0  0
 15 16  2  0  0  0  0
  8 16  1  0  0  0  0
 11 16  1  0  0  0  0
 10 17  2  0  0  0  0
  8 18  1  0  0  0  0
 18 19  2  0  0  0  0
 19 20  1  0  0  0  0
 20 21  2  0  0  0  0
 21 22  1  0  0  0  0
 22 23  2  0  0  0  0
 18 23  1  0  0  0  0
 23 24  1  0  0  0  0
  2 24  1  0  0  0  0
 21 25  1  0  0  0  0
M  END
>  <Name>
Fluorescein

>  <CAS>
2321-07-5

>  <Formula>
C20H12O5

>  <MolWt>
332.32 

>  <Bioactivity>
A phthalic indicator dye that appears yellow-green in normal tear film and bright green in a more alkaline medium such as the aqueous humor, used as a diagnostic aid in corneal injuries and corneal trauma.


>  <Pathways>
Immunology/Inflammation

>  <Target>
Immunologic Factors

>  <Receptor>
Ig kappa chain V-II region RPMI

>  <Reference>
1. Estevez-Torres A, et al. Anal Chem. 2007 Sep 25;. 

$$$$
59-97-2
  Mrv1561503291623562D          

 14 13  0  0  0  0            999 V2000
    0.4125    0.0000    0.0000 H   0  3  0  0  0  0  0  0  0  0  0  0
    4.6111    0.2237    0.0000 C   0  0  0  0  0  0  0  0  0  0  0  0
    3.8966    0.6362    0.0000 C   0  0  0  0  0  0  0  0  0  0  0  0
    3.1821    0.2237    0.0000 C   0  0  0  0  0  0  0  0  0  0  0  0
    3.1821   -0.6013    0.0000 C   0  0  0  0  0  0  0  0  0  0  0  0
    3.8496   -1.0863    0.0000 N   0  0  0  0  0  0  0  0  0  0  0  0
    3.5946   -1.8709    0.0000 C   0  0  0  0  0  0  0  0  0  0  0  0
    2.7696   -1.8709    0.0000 C   0  0  0  0  0  0  0  0  0  0  0  0
    2.5147   -1.0863    0.0000 N   0  0  0  0  0  0  0  0  0  0  0  0
    3.8966    1.4612    0.0000 C   0  0  0  0  0  0  0  0  0  0  0  0
    4.6111    1.8737    0.0000 C   0  0  0  0  0  0  0  0  0  0  0  0
    5.3256    1.4612    0.0000 C   0  0  0  0  0  0  0  0  0  0  0  0
    5.3256    0.6362    0.0000 C   0  0  0  0  0  0  0  0  0  0  0  0
   -0.4125    0.0000    0.0000 Cl  0  5  0  0  0  0  0  0  0  0  0  0
  2  3  2  0  0  0  0
  3  4  1  0  0  0  0
  4  5  1  0  0  0  0
  5  6  2  0  0  0  0
  6  7  1  0  0  0  0
  7  8  1  0  0  0  0
  8  9  1  0  0  0  0
  5  9  1  0  0  0  0
  3 10  1  0  0  0  0
 10 11  2  0  0  0  0
 11 12  1  0  0  0  0
 12 13  2  0  0  0  0
  2 13  1  0  0  0  0
M  CHG  2   1   1  14  -1
M  END
>  <Name>
Tolazoline HCl

>  <CAS>
59-97-2

>  <Formula>
C10H13ClN2

>  <MolWt>
196.68 

>  <Bioactivity>
Tolazoline hydrochloride is a vasodilator that apparently has direct actions on blood vessels and also increases cardiac output. Tolazoline can interact to some degree with histamine, adrenergic, and cholinergic receptors, but the mechanisms of its therapeutic effects are not clear. It is used in treatment of persistent pulmonary hypertension of the newborn.


>  <Pathways>
GPCR/G Protein

>  <Target>
Adrenergic Receptor antagonist

>  <Receptor>
Adrenergic Receptor

>  <Reference>
1. Lei L, et al. J Cardiovasc Pharmacol, 1998, 31(5), 721-733.

$$$$
62-51-1
  Mrv1561503291623562D          

 12 10  0  0  0  0            999 V2000
    0.4875    0.5846    0.0000 C   0  0  0  0  0  0  0  0  0  0  0  0
    0.0750    1.2990    0.0000 N   0  3  0  0  0  0  0  0  0  0  0  0
   -0.3375    2.0135    0.0000 C   0  0  0  0  0  0  0  0  0  0  0  0
   -0.6395    0.8865    0.0000 C   0  0  0  0  0  0  0  0  0  0  0  0
    0.7895    1.7115    0.0000 C   0  0  0  0  0  0  0  0  0  0  0  0
    0.0750   -0.1299    0.0000 C   0  0  0  0  0  0  0  0  0  0  0  0
    0.4875   -0.8444    0.0000 O   0  0  0  0  0  0  0  0  0  0  0  0
    0.0750   -1.5588    0.0000 C   0  0  0  0  0  0  0  0  0  0  0  0
    0.4875   -2.2733    0.0000 C   0  0  0  0  0  0  0  0  0  0  0  0
   -0.7500   -1.5588    0.0000 O   0  0  0  0  0  0  0  0  0  0  0  0
   -0.7500   -0.1299    0.0000 C   0  0  0  0  0  0  0  0  0  0  0  0
    3.1466    0.0000    0.0000 Cl  0  5  0  0  0  0  0  0  0  0  0  0
  1  2  1  0  0  0  0
  2  3  1  0  0  0  0
  2  4  1  0  0  0  0
  2  5  1  0  0  0  0
  1  6  1  0  0  0  0
  6  7  1  0  0  0  0
  7  8  1  0  0  0  0
  8  9  1  0  0  0  0
  8 10  2  0  0  0  0
  6 11  1  0  0  0  0
M  CHG  2   2   1  12  -1
M  END
>  <Name>
Methacholine Chloride

>  <CAS>
62-51-1

>  <Formula>
C8H18ClNO2

>  <MolWt>
195.69 

>  <Bioactivity>
Methacholine chloride is a quaternary ammonium parasympathomimetic agent with the muscarinic actions of ACETYLCHOLINE. It is hydrolyzed by ACETYLCHOLINESTERASE at a considerably slower rate than ACETYLCHOLINE and is more resistant to hydrolysis by nonspecific CHOLINESTERASES so that its actions are more prolonged. It is used as a parasympathomimetic bronchoconstrictor agent and as a diagnostic aid for bronchial asthma. (From Martindale, The Extra Pharmacopoeia, 30th ed, p1116)


>  <Pathways>
Neuroscience

>  <Target>
AChR antagonist

>  <Receptor>
Muscarinic AChR

>  <Reference>
1. Liu PS, et al. Eur J Pharmacol. 2011 Jan 10;650(1):34-40. 

$$$$
70-26-8
  Mrv1561503291623562D          

  9  8  0  0  0  0            999 V2000
    3.9039    1.4289    0.0000 C   0  0  0  0  0  0  0  0  0  0  0  0
    3.1895    1.8414    0.0000 C   0  0  0  0  0  0  0  0  0  0  0  0
    2.4750    1.4289    0.0000 C   0  0  0  0  0  0  0  0  0  0  0  0
    1.7605    1.8414    0.0000 O   0  0  0  0  0  0  0  0  0  0  0  0
    2.4750    0.6039    0.0000 O   0  0  0  0  0  0  0  0  0  0  0  0
    3.1895    2.6664    0.0000 N   0  0  0  0  0  0  0  0  0  0  0  0
    4.6184    1.8414    0.0000 C   0  0  0  0  0  0  0  0  0  0  0  0
    5.3329    1.4289    0.0000 C   0  0  0  0  0  0  0  0  0  0  0  0
    6.0474    1.8414    0.0000 N   0  0  0  0  0  0  0  0  0  0  0  0
  1  2  1  0  0  0  0
  2  3  1  0  0  0  0
  3  4  1  0  0  0  0
  3  5  2  0  0  0  0
  2  6  1  0  0  0  0
  1  7  1  0  0  0  0
  7  8  1  0  0  0  0
  8  9  1  0  0  0  0
M  END
>  <Name>
L-Ornithine

>  <CAS>
70-26-8

>  <Formula>
C5H13ClN2O2

>  <MolWt>
132.16 

>  <Bioactivity>
An amino acid produced in the urea cycle by the splitting off of urea from arginine.


>  <Pathways>
Amino Acids & Building Blocks

>  <Target>
Amino Acids and Derivatives

>  <Receptor>
Ornithine aminotransferase,  Ornithine carbamoyltransferase,  Arginase-1,  Ornithine decarboxylase antizyme 1, Arginase-2

>  <Reference>
1. Kristiansen RG, et al. Am J Physiol Gastrointest Liver Physiol. 2014 Nov 15;307(10):G1024-31. 

$$$$
51-79-6
  Mrv1561503291623562D          

  6  5  0  0  0  0            999 V2000
    0.8250    0.0000    0.0000 C   0  0  0  0  0  0  0  0  0  0  0  0
    1.2375   -0.7145    0.0000 O   0  0  0  0  0  0  0  0  0  0  0  0
    2.0625   -0.7145    0.0000 C   0  0  0  0  0  0  0  0  0  0  0  0
    2.4750   -1.4289    0.0000 N   0  0  0  0  0  0  0  0  0  0  0  0
    2.4750   -0.0000    0.0000 O   0  0  0  0  0  0  0  0  0  0  0  0
    0.0000    0.0000    0.0000 C   0  0  0  0  0  0  0  0  0  0  0  0
  1  2  1  0  0  0  0
  2  3  1  0  0  0  0
  3  4  1  0  0  0  0
  3  5  2  0  0  0  0
  1  6  1  0  0  0  0
M  END
>  <Name>
Urethane

>  <CAS>
51-79-6

>  <Formula>
C3H7NO2

>  <MolWt>
89.09 

>  <Bioactivity>
Ethyl carbamate (also known as urethan and urethane), formerly marketed as an inactive ingredient in Profenil injection, was determined to be carcinogenic and was removed from the Canadian, US, and UK markets in 1963.

>  <Pathways>
Metabolism

>  <Target>
MAO inhibitor; PLA inhibitor

>  <Receptor>
AO;MPO;cPLA2

>  <Reference>
1. Wang GF, et al. Eur Rev Med Pharmacol Sci. 2014;18(10):1454-7.

$$$$
118-56-9
  Mrv1561503291623562D          

 19 20  0  0  0  0            999 V2000
    2.1434   -2.8875    0.0000 C   0  0  0  0  0  0  0  0  0  0  0  0
    2.1434   -3.7125    0.0000 C   0  0  0  0  0  0  0  0  0  0  0  0
    1.4289   -4.1250    0.0000 C   0  0  0  0  0  0  0  0  0  0  0  0
    0.7145   -3.7125    0.0000 C   0  0  0  0  0  0  0  0  0  0  0  0
    0.7145   -2.8875    0.0000 C   0  0  0  0  0  0  0  0  0  0  0  0
    1.4289   -2.4750    0.0000 C   0  0  0  0  0  0  0  0  0  0  0  0
    1.4289   -1.6500    0.0000 C   0  0  0  0  0  0  0  0  0  0  0  0
    0.7145   -1.2375    0.0000 O   0  0  0  0  0  0  0  0  0  0  0  0
    0.7145   -0.4125    0.0000 C   0  0  0  0  0  0  0  0  0  0  0  0
    0.0000    0.0000    0.0000 C   0  0  0  0  0  0  0  0  0  0  0  0
    0.0000    0.8250    0.0000 C   0  0  0  0  0  0  0  0  0  0  0  0
   -0.8125    0.6817    0.0000 C   0  0  0  0  0  0  0  0  0  0  0  0
   -0.2822    1.6002    0.0000 C   0  0  0  0  0  0  0  0  0  0  0  0
    0.7145    1.2375    0.0000 C   0  0  0  0  0  0  0  0  0  0  0  0
    1.4289    0.8250    0.0000 C   0  0  0  0  0  0  0  0  0  0  0  0
    1.4289   -0.0000    0.0000 C   0  0  0  0  0  0  0  0  0  0  0  0
    2.1434    1.2375    0.0000 C   0  0  0  0  0  0  0  0  0  0  0  0
    2.1434   -1.2375    0.0000 O   0  0  0  0  0  0  0  0  0  0  0  0
   -0.0000   -2.4750    0.0000 O   0  0  0  0  0  0  0  0  0  0  0  0
  1  2  2  0  0  0  0
  2  3  1  0  0  0  0
  3  4  2  0  0  0  0
  4  5  1  0  0  0  0
  5  6  2  0  0  0  0
  1  6  1  0  0  0  0
  6  7  1  0  0  0  0
  7  8  1  0  0  0  0
  8  9  1  0  0  0  0
  9 10  1  0  0  0  0
 10 11  1  0  0  0  0
 11 12  1  0  0  0  0
 11 13  1  0  0  0  0
 11 14  1  0  0  0  0
 14 15  1  0  0  0  0
 15 16  1  0  0  0  0
  9 16  1  0  0  0  0
 15 17  1  0  0  0  0
  7 18  2  0  0  0  0
  5 19  1  0  0  0  0
M  END
>  <Name>
Homosalate

>  <CAS>
118-56-9

>  <Formula>
C16H22O3

>  <MolWt>
262.35 

>  <Bioactivity>
Homosalate is an organic compound used in some sunscreens. It is an ester formed from salicylic acid and 3,3,5-trimethylcyclohexanol, a derivative of cyclohexanol. Contained in 45% of U.S. sunscreens, it is used as a chemical UV filter. 

>  <Pathways>
Others

>  <Target>
Others

>  <Receptor>
Others

>  <Reference>
1. Kim TH, et al. J Toxicol Environ Health A. 2014;77(4):202-13. 

$$$$
T0736
  Mrv1561503291623562D          

 14 14  0  0  0  0            999 V2000
    1.4289    0.8250    0.0000 C   0  0  0  0  0  0  0  0  0  0  0  0
    1.4289    0.0000    0.0000 C   0  0  0  0  0  0  0  0  0  0  0  0
    2.1434   -0.4125    0.0000 N   0  3  0  0  0  0  0  0  0  0  0  0
    2.1434   -1.2375    0.0000 O   0  0  0  0  0  0  0  0  0  0  0  0
    2.8579   -0.0000    0.0000 O   0  5  0  0  0  0  0  0  0  0  0  0
    0.7145   -0.4125    0.0000 C   0  0  0  0  0  0  0  0  0  0  0  0
   -0.0000    0.0000    0.0000 C   0  0  0  0  0  0  0  0  0  0  0  0
   -0.0000    0.8250    0.0000 C   0  0  0  0  0  0  0  0  0  0  0  0
    0.7145    1.2375    0.0000 C   0  0  0  0  0  0  0  0  0  0  0  0
    0.7145    2.0625    0.0000 As  0  0  0  0  0  0  0  0  0  0  0  0
    0.7145    2.8875    0.0000 O   0  0  0  0  0  0  0  0  0  0  0  0
    1.5395    2.0625    0.0000 O   0  0  0  0  0  0  0  0  0  0  0  0
   -0.1105    2.0625    0.0000 O   0  0  0  0  0  0  0  0  0  0  0  0
    0.7145   -1.2375    0.0000 O   0  0  0  0  0  0  0  0  0  0  0  0
  1  2  2  0  0  0  0
  2  3  1  0  0  0  0
  3  4  2  0  0  0  0
  3  5  1  0  0  0  0
  2  6  1  0  0  0  0
  6  7  2  0  0  0  0
  7  8  1  0  0  0  0
  8  9  2  0  0  0  0
  1  9  1  0  0  0  0
  9 10  1  0  0  0  0
 10 11  1  0  0  0  0
 10 12  1  0  0  0  0
 10 13  2  0  0  0  0
  6 14  1  0  0  0  0
M  CHG  2   3   1   5  -1
M  END
>  <Name>
Roxarsone

>  <CAS>
121-19-7

>  <Formula>
C6H6AsNO6

>  <MolWt>
263.04 

>  <Bioactivity>
An arsenic derivative which has anticoccidial action and promotes growth in animals.


>  <Pathways>
Microbiology & Virology

>  <Target>
Antibacterial

>  <Receptor>
Others

>  <Reference>
1. Huang L, et al. Chemosphere. 2014 Apr;100:57-62. 

$$$$
T0741
  Mrv1561503291623562D          

 19 20  0  0  0  0            999 V2000
   -0.7145   -2.8875    0.0000 C   0  0  0  0  0  0  0  0  0  0  0  0
   -1.4289   -3.3000    0.0000 C   0  0  0  0  0  0  0  0  0  0  0  0
   -1.4289   -4.1250    0.0000 S   0  0  0  0  0  0  0  0  0  0  0  0
   -1.4289   -4.9500    0.0000 N   0  0  0  0  0  0  0  0  0  0  0  0
   -0.7145   -5.3625    0.0000 C   0  0  0  0  0  0  0  0  0  0  0  0
   -0.0000   -4.9500    0.0000 N   0  0  0  0  0  0  0  0  0  0  0  0
    0.7145   -5.3625    0.0000 C   0  0  0  0  0  0  0  0  0  0  0  0
    0.7145   -6.1875    0.0000 C   0  0  0  0  0  0  0  0  0  0  0  0
   -0.0000   -6.6000    0.0000 C   0  0  0  0  0  0  0  0  0  0  0  0
   -0.7145   -6.1875    0.0000 N   0  0  0  0  0  0  0  0  0  0  0  0
   -0.0000   -7.4250    0.0000 C   0  0  0  0  0  0  0  0  0  0  0  0
    1.4289   -4.9500    0.0000 C   0  0  0  0  0  0  0  0  0  0  0  0
   -0.6039   -4.1250    0.0000 O   0  0  0  0  0  0  0  0  0  0  0  0
   -2.2539   -4.1250    0.0000 O   0  0  0  0  0  0  0  0  0  0  0  0
   -2.1434   -2.8875    0.0000 C   0  0  0  0  0  0  0  0  0  0  0  0
   -2.1434   -2.0625    0.0000 C   0  0  0  0  0  0  0  0  0  0  0  0
   -1.4289   -1.6500    0.0000 C   0  0  0  0  0  0  0  0  0  0  0  0
   -0.7145   -2.0625    0.0000 C   0  0  0  0  0  0  0  0  0  0  0  0
   -1.4289   -0.8250    0.0000 N   0  0  0  0  0  0  0  0  0  0  0  0
  1  2  2  0  0  0  0
  2  3  1  0  0  0  0
  3  4  1  0  0  0  0
  4  5  1  0  0  0  0
  5  6  2  0  0  0  0
  6  7  1  0  0  0  0
  7  8  2  0  0  0  0
  8  9  1  0  0  0  0
  9 10  2  0  0  0  0
  5 10  1  0  0  0  0
  9 11  1  0  0  0  0
  7 12  1  0  0  0  0
  3 13  2  0  0  0  0
  3 14  2  0  0  0  0
  2 15  1  0  0  0  0
 15 16  2  0  0  0  0
 16 17  1  0  0  0  0
 17 18  2  0  0  0  0
  1 18  1  0  0  0  0
 17 19  1  0  0  0  0
M  END
>  <Name>
Sulfamethazine

>  <CAS>
57-68-1

>  <Formula>
C12H14N4O2S

>  <MolWt>
278.34 

>  <Bioactivity>
A sulfanilamide anti-infective agent. It has a spectrum of antimicrobial action similar to other sulfonamides.


>  <Pathways>
Microbiology & Virology

>  <Target>
Antibacterial

>  <Receptor>
Others

>  <Reference>
1. Fukahori S, et al. J Environ Manage. 2015 Jul 1;157:103-10. 

$$$$
10163-15-2
  Mrv1561503291623562D          

  7  4  0  0  0  0            999 V2000
    1.6500    0.8250    0.0000 O   0  0  0  0  0  0  0  0  0  0  0  0
    1.6500   -0.0000    0.0000 P   0  0  0  0  0  0  0  0  0  0  0  0
    1.6500   -0.8250    0.0000 F   0  0  0  0  0  0  0  0  0  0  0  0
    2.4750   -0.0000    0.0000 O   0  5  0  0  0  0  0  0  0  0  0  0
    0.8250    0.0000    0.0000 O   0  5  0  0  0  0  0  0  0  0  0  0
    3.3000   -0.0000    0.0000 Na  0  3  0  0  0  0  0  0  0  0  0  0
    0.0000    0.0000    0.0000 Na  0  3  0  0  0  0  0  0  0  0  0  0
  1  2  2  0  0  0  0
  2  3  1  0  0  0  0
  2  4  1  0  0  0  0
  2  5  1  0  0  0  0
M  CHG  4   4  -1   5  -1   6   1   7   1
M  END
>  <Name>
Disodium monofluorophosphate

>  <CAS>
10163-15-2

>  <Formula>
C26H32F2O7

>  <MolWt>
143.95 

>  <Bioactivity>
Sodium Monofluorophosphate is a competitive inhibitor of pyruvate kinase and alkaline phosphatase with Ki of 3.4 mM and 69 ?M, respectively, which also irreversibly inhibits phosphorylase phosphatase with Ki of 0.5 mM.

>  <Pathways>
Enzyme

>  <Target>
Phosphorylase inhibitor

>  <Receptor>
phosphorylase, alkaline phosphatase,pyruvate kinase

>  <Reference>
1. Pearce EI. Caries Res, 1983, Suppl 1, 21-35.

$$$$
T0747
  Mrv1561503291623562D          

 16 17  0  0  0  0            999 V2000
    2.4492   -3.3937    0.0000 C   0  0  0  0  0  0  0  0  0  0  0  0
    1.6242   -3.3937    0.0000 C   0  0  0  0  0  0  0  0  0  0  0  0
    1.3693   -2.6090    0.0000 N   0  0  0  0  0  0  0  0  0  0  0  0
    2.0367   -2.1241    0.0000 C   0  0  0  0  0  0  0  0  0  0  0  0
    2.0367   -1.2991    0.0000 N   0  0  0  0  0  0  0  0  0  0  0  0
    2.7512   -0.8866    0.0000 S   0  0  0  0  0  0  0  0  0  0  0  0
    3.1637   -1.6011    0.0000 O   0  0  0  0  0  0  0  0  0  0  0  0
    2.3387   -0.1721    0.0000 O   0  0  0  0  0  0  0  0  0  0  0  0
    3.4656   -0.4741    0.0000 C   0  0  0  0  0  0  0  0  0  0  0  0
    3.4656    0.3509    0.0000 C   0  0  0  0  0  0  0  0  0  0  0  0
    4.1801    0.7634    0.0000 C   0  0  0  0  0  0  0  0  0  0  0  0
    4.8946    0.3509    0.0000 C   0  0  0  0  0  0  0  0  0  0  0  0
    4.8946   -0.4741    0.0000 C   0  0  0  0  0  0  0  0  0  0  0  0
    4.1801   -0.8866    0.0000 C   0  0  0  0  0  0  0  0  0  0  0  0
    5.6091    0.7634    0.0000 N   0  0  0  0  0  0  0  0  0  0  0  0
    2.7041   -2.6090    0.0000 S   0  0  0  0  0  0  0  0  0  0  0  0
  1  2  2  0  0  0  0
  2  3  1  0  0  0  0
  3  4  2  0  0  0  0
  4  5  1  0  0  0  0
  5  6  1  0  0  0  0
  6  7  2  0  0  0  0
  6  8  2  0  0  0  0
  6  9  1  0  0  0  0
  9 10  2  0  0  0  0
 10 11  1  0  0  0  0
 11 12  2  0  0  0  0
 12 13  1  0  0  0  0
 13 14  2  0  0  0  0
  9 14  1  0  0  0  0
 12 15  1  0  0  0  0
  4 16  1  0  0  0  0
  1 16  1  0  0  0  0
M  END
>  <Name>
Sulfathiazole

>  <CAS>
72-14-0

>  <Formula>
C9H9N3O2S2

>  <MolWt>
255.32 

>  <Bioactivity>
Sulfathiazole is a short-acting sulfa drug. It used to be a common oral and topical antimicrobial until less toxic alternatives were discovered. It is still occasionally used, sometimes in combination with sulfabenzamide and sulfacetamide.


>  <Pathways>
Enzyme

>  <Target>
Antibiotic;DHPS inhibitor

>  <Receptor>
Dihydropteroate synthetase;DHPS

>  <Reference>
1. Nichols BP, Guay GG. Antimicrob Agents Chemother. 1989 Dec;33(12):2042-8.

$$$$
T0748
  Mrv1561503291623562D          

 19 20  0  0  0  0            999 V2000
   -0.7145   -2.8875    0.0000 C   0  0  0  0  0  0  0  0  0  0  0  0
   -1.4289   -3.3000    0.0000 C   0  0  0  0  0  0  0  0  0  0  0  0
   -1.4289   -4.1250    0.0000 S   0  0  0  0  0  0  0  0  0  0  0  0
   -1.4289   -4.9500    0.0000 N   0  0  0  0  0  0  0  0  0  0  0  0
   -0.7145   -5.3625    0.0000 C   0  0  0  0  0  0  0  0  0  0  0  0
   -0.0000   -4.9500    0.0000 N   0  0  0  0  0  0  0  0  0  0  0  0
    0.7145   -5.3625    0.0000 C   0  0  0  0  0  0  0  0  0  0  0  0
    0.7145   -6.1875    0.0000 C   0  0  0  0  0  0  0  0  0  0  0  0
   -0.0000   -6.6000    0.0000 C   0  0  0  0  0  0  0  0  0  0  0  0
   -0.7145   -6.1875    0.0000 N   0  0  0  0  0  0  0  0  0  0  0  0
    1.4289   -6.6000    0.0000 O   0  0  0  0  0  0  0  0  0  0  0  0
    1.4289   -7.4250    0.0000 C   0  0  0  0  0  0  0  0  0  0  0  0
   -0.6039   -4.1250    0.0000 O   0  0  0  0  0  0  0  0  0  0  0  0
   -2.2539   -4.1250    0.0000 O   0  0  0  0  0  0  0  0  0  0  0  0
   -2.1434   -2.8875    0.0000 C   0  0  0  0  0  0  0  0  0  0  0  0
   -2.1434   -2.0625    0.0000 C   0  0  0  0  0  0  0  0  0  0  0  0
   -1.4289   -1.6500    0.0000 C   0  0  0  0  0  0  0  0  0  0  0  0
   -0.7145   -2.0625    0.0000 C   0  0  0  0  0  0  0  0  0  0  0  0
   -1.4289   -0.8250    0.0000 N   0  0  0  0  0  0  0  0  0  0  0  0
  1  2  2  0  0  0  0
  2  3  1  0  0  0  0
  3  4  1  0  0  0  0
  4  5  1  0  0  0  0
  5  6  2  0  0  0  0
  6  7  1  0  0  0  0
  7  8  2  0  0  0  0
  8  9  1  0  0  0  0
  9 10  2  0  0  0  0
  5 10  1  0  0  0  0
  8 11  1  0  0  0  0
 11 12  1  0  0  0  0
  3 13  2  0  0  0  0
  3 14  2  0  0  0  0
  2 15  1  0  0  0  0
 15 16  2  0  0  0  0
 16 17  1  0  0  0  0
 17 18  2  0  0  0  0
  1 18  1  0  0  0  0
 17 19  1  0  0  0  0
M  END
>  <Name>
Sulfameter

>  <CAS>
651-06-9

>  <Formula>
C11H12N4O3S

>  <MolWt>
280.31 

>  <Bioactivity>
Long acting sulfonamide used in leprosy, urinary, and respiratory tract infections.

>  <Pathways>
Microbiology & Virology

>  <Target>
Antibiotic

>  <Receptor>
DHFR inhibitor

>  <Reference>
1. Kuroda K, et al. Kobe J Med Sci. 1976 Dec;22(4):255-61.

$$$$
67-45-8
  Mrv1561503291623562D          

 16 17  0  0  0  0            999 V2000
    2.7308   -3.2309    0.0000 C   0  0  0  0  0  0  0  0  0  0  0  0
    1.9058   -3.2309    0.0000 C   0  0  0  0  0  0  0  0  0  0  0  0
    1.6509   -2.4463    0.0000 O   0  0  0  0  0  0  0  0  0  0  0  0
    2.3183   -1.9614    0.0000 C   0  0  0  0  0  0  0  0  0  0  0  0
    2.9858   -2.4463    0.0000 C   0  0  0  0  0  0  0  0  0  0  0  0
    2.3183   -1.1364    0.0000 N   0  3  0  0  0  0  0  0  0  0  0  0
    3.0328   -0.7239    0.0000 O   0  0  0  0  0  0  0  0  0  0  0  0
    1.6039   -0.7239    0.0000 O   0  5  0  0  0  0  0  0  0  0  0  0
    1.4209   -3.8983    0.0000 C   0  0  0  0  0  0  0  0  0  0  0  0
    1.7565   -4.6520    0.0000 N   0  0  0  0  0  0  0  0  0  0  0  0
    1.2715   -5.3195    0.0000 N   0  0  0  0  0  0  0  0  0  0  0  0
    1.5265   -6.1041    0.0000 C   0  0  0  0  0  0  0  0  0  0  0  0
    0.8590   -6.5890    0.0000 O   0  0  0  0  0  0  0  0  0  0  0  0
    0.1916   -6.1041    0.0000 C   0  0  0  0  0  0  0  0  0  0  0  0
    0.4465   -5.3195    0.0000 C   0  0  0  0  0  0  0  0  0  0  0  0
    2.3111   -6.3590    0.0000 O   0  0  0  0  0  0  0  0  0  0  0  0
  1  2  2  0  0  0  0
  2  3  1  0  0  0  0
  3  4  1  0  0  0  0
  4  5  2  0  0  0  0
  1  5  1  0  0  0  0
  4  6  1  0  0  0  0
  6  7  2  0  0  0  0
  6  8  1  0  0  0  0
  2  9  1  0  0  0  0
  9 10  2  0  0  0  0
 10 11  1  0  0  0  0
 11 12  1  0  0  0  0
 12 13  1  0  0  0  0
 13 14  1  0  0  0  0
 14 15  1  0  0  0  0
 11 15  1  0  0  0  0
 12 16  2  0  0  0  0
M  CHG  2   6   1   8  -1
M  END
>  <Name>
Furazolidone

>  <CAS>
67-45-8

>  <Formula>
C8H7N3O5

>  <MolWt>
225.16 

>  <Bioactivity>
A nitrofuran derivative with antiprotozoal and antibacterial activity. Furazolidone acts by gradual inhibition of monoamine oxidase. (From Martindale, The Extra Pharmacopoeia, 30th ed, p514)


>  <Pathways>
Enzyme

>  <Target>
MAO inhibitors

>  <Receptor>
MAO

>  <Reference>
1. Timperio AM, et al. Xenobiotica. 2003 Feb;33(2):153-67.

$$$$
103-16-2
  Mrv1561503291623562D          

 15 16  0  0  0  0            999 V2000
    2.1434   -3.7125    0.0000 C   0  0  0  0  0  0  0  0  0  0  0  0
    1.4289   -4.1250    0.0000 C   0  0  0  0  0  0  0  0  0  0  0  0
    1.4289   -4.9500    0.0000 O   0  0  0  0  0  0  0  0  0  0  0  0
    2.1434   -5.3625    0.0000 C   0  0  0  0  0  0  0  0  0  0  0  0
    2.1434   -6.1875    0.0000 C   0  0  0  0  0  0  0  0  0  0  0  0
    2.8579   -6.6000    0.0000 C   0  0  0  0  0  0  0  0  0  0  0  0
    2.8579   -7.4250    0.0000 C   0  0  0  0  0  0  0  0  0  0  0  0
    2.1434   -7.8375    0.0000 C   0  0  0  0  0  0  0  0  0  0  0  0
    1.4289   -7.4250    0.0000 C   0  0  0  0  0  0  0  0  0  0  0  0
    1.4289   -6.6000    0.0000 C   0  0  0  0  0  0  0  0  0  0  0  0
    0.7145   -3.7125    0.0000 C   0  0  0  0  0  0  0  0  0  0  0  0
    0.7145   -2.8875    0.0000 C   0  0  0  0  0  0  0  0  0  0  0  0
    1.4289   -2.4750    0.0000 C   0  0  0  0  0  0  0  0  0  0  0  0
    2.1434   -2.8875    0.0000 C   0  0  0  0  0  0  0  0  0  0  0  0
    1.4289   -1.6500    0.0000 O   0  0  0  0  0  0  0  0  0  0  0  0
  1  2  2  0  0  0  0
  2  3  1  0  0  0  0
  3  4  1  0  0  0  0
  4  5  1  0  0  0  0
  5  6  2  0  0  0  0
  6  7  1  0  0  0  0
  7  8  2  0  0  0  0
  8  9  1  0  0  0  0
  9 10  2  0  0  0  0
  5 10  1  0  0  0  0
  2 11  1  0  0  0  0
 11 12  2  0  0  0  0
 12 13  1  0  0  0  0
 13 14  2  0  0  0  0
  1 14  1  0  0  0  0
 13 15  1  0  0  0  0
M  END
>  <Name>
Monobenzone

>  <CAS>
103-16-2

>  <Formula>
C13H12O2

>  <MolWt>
200.23 

>  <Bioactivity>
Monobenzone is the monobenzyl ether of hydroquinone used medically for depigmentation. Monobenzone occurs as a white, almost tasteless crystalline powder, soluble in alcohol and practically insoluble in water. The topical application of monobenzone in animals increases the excretion of melanin from the melanocytes. The same action is thought to be responsible for the depigmenting effect of the drug in humans. Monobenzone may cause destruction of melanocytes and permanent depigmentation.


>  <Pathways>
Enzyme

>  <Target>
Tyrosinase inhibitor

>  <Receptor>
Tyrosinase

>  <Reference>
1. Chen YR, et al. J Agric Food Chem. 2009 Mar 25;57(6):2200-5. 

$$$$
T0767
  Mrv1561503291623562D          

 17 18  0  0  0  0            999 V2000
   -0.7145   -2.8875    0.0000 C   0  0  0  0  0  0  0  0  0  0  0  0
   -1.4289   -3.3000    0.0000 C   0  0  0  0  0  0  0  0  0  0  0  0
   -1.4289   -4.1250    0.0000 S   0  0  0  0  0  0  0  0  0  0  0  0
   -0.6039   -4.1250    0.0000 O   0  0  0  0  0  0  0  0  0  0  0  0
   -2.2539   -4.1250    0.0000 O   0  0  0  0  0  0  0  0  0  0  0  0
   -1.4289   -4.9500    0.0000 N   0  0  0  0  0  0  0  0  0  0  0  0
   -0.7145   -5.3625    0.0000 C   0  0  0  0  0  0  0  0  0  0  0  0
   -0.0000   -4.9500    0.0000 N   0  0  0  0  0  0  0  0  0  0  0  0
    0.7145   -5.3625    0.0000 C   0  0  0  0  0  0  0  0  0  0  0  0
    0.7145   -6.1875    0.0000 C   0  0  0  0  0  0  0  0  0  0  0  0
   -0.0000   -6.6000    0.0000 C   0  0  0  0  0  0  0  0  0  0  0  0
   -0.7145   -6.1875    0.0000 C   0  0  0  0  0  0  0  0  0  0  0  0
   -2.1434   -2.8875    0.0000 C   0  0  0  0  0  0  0  0  0  0  0  0
   -2.1434   -2.0625    0.0000 C   0  0  0  0  0  0  0  0  0  0  0  0
   -1.4289   -1.6500    0.0000 C   0  0  0  0  0  0  0  0  0  0  0  0
   -0.7145   -2.0625    0.0000 C   0  0  0  0  0  0  0  0  0  0  0  0
   -1.4289   -0.8250    0.0000 N   0  0  0  0  0  0  0  0  0  0  0  0
  1  2  2  0  0  0  0
  2  3  1  0  0  0  0
  3  4  2  0  0  0  0
  3  5  2  0  0  0  0
  3  6  1  0  0  0  0
  6  7  1  0  0  0  0
  7  8  2  0  0  0  0
  8  9  1  0  0  0  0
  9 10  2  0  0  0  0
 10 11  1  0  0  0  0
 11 12  2  0  0  0  0
  7 12  1  0  0  0  0
  2 13  1  0  0  0  0
 13 14  2  0  0  0  0
 14 15  1  0  0  0  0
 15 16  2  0  0  0  0
  1 16  1  0  0  0  0
 15 17  1  0  0  0  0
M  END
>  <Name>
Sulfapyridine

>  <CAS>
144-83-2

>  <Formula>
C11H11N3O2S

>  <MolWt>
249.29 

>  <Bioactivity>
Antibacterial, potentially toxic, used to treat certain skin diseases.


>  <Pathways>
Microbiology & Virology

>  <Target>
Antibiotic

>  <Receptor>
Dihydropteroate synthetase

>  <Reference>
1. McDonald M, et al. J Chromatogr A. 2009 Nov 13;1216(46):8110-6. 

$$$$
T0913
  Mrv1561503291623562D          

 18 19  0  0  0  0            999 V2000
   -0.7145   -2.8875    0.0000 C   0  0  0  0  0  0  0  0  0  0  0  0
   -1.4289   -3.3000    0.0000 C   0  0  0  0  0  0  0  0  0  0  0  0
   -1.4289   -4.1250    0.0000 S   0  0  0  0  0  0  0  0  0  0  0  0
   -0.6039   -4.1250    0.0000 O   0  0  0  0  0  0  0  0  0  0  0  0
   -2.2539   -4.1250    0.0000 O   0  0  0  0  0  0  0  0  0  0  0  0
   -1.4289   -4.9500    0.0000 N   0  0  0  0  0  0  0  0  0  0  0  0
   -0.7145   -5.3625    0.0000 C   0  0  0  0  0  0  0  0  0  0  0  0
   -0.0000   -4.9500    0.0000 N   0  0  0  0  0  0  0  0  0  0  0  0
    0.7145   -5.3625    0.0000 C   0  0  0  0  0  0  0  0  0  0  0  0
    0.7145   -6.1875    0.0000 C   0  0  0  0  0  0  0  0  0  0  0  0
   -0.0000   -6.6000    0.0000 C   0  0  0  0  0  0  0  0  0  0  0  0
   -0.7145   -6.1875    0.0000 N   0  0  0  0  0  0  0  0  0  0  0  0
    1.4289   -4.9500    0.0000 C   0  0  0  0  0  0  0  0  0  0  0  0
   -2.1434   -2.8875    0.0000 C   0  0  0  0  0  0  0  0  0  0  0  0
   -2.1434   -2.0625    0.0000 C   0  0  0  0  0  0  0  0  0  0  0  0
   -1.4289   -1.6500    0.0000 C   0  0  0  0  0  0  0  0  0  0  0  0
   -0.7145   -2.0625    0.0000 C   0  0  0  0  0  0  0  0  0  0  0  0
   -1.4289   -0.8250    0.0000 N   0  0  0  0  0  0  0  0  0  0  0  0
  1  2  2  0  0  0  0
  2  3  1  0  0  0  0
  3  4  2  0  0  0  0
  3  5  2  0  0  0  0
  3  6  1  0  0  0  0
  6  7  1  0  0  0  0
  7  8  2  0  0  0  0
  8  9  1  0  0  0  0
  9 10  2  0  0  0  0
 10 11  1  0  0  0  0
 11 12  2  0  0  0  0
  7 12  1  0  0  0  0
  9 13  1  0  0  0  0
  2 14  1  0  0  0  0
 14 15  2  0  0  0  0
 15 16  1  0  0  0  0
 16 17  2  0  0  0  0
  1 17  1  0  0  0  0
 16 18  1  0  0  0  0
M  END
>  <Name>
Sulfamerazine

>  <CAS>
127-79-7

>  <Formula>
C11H12N4O2S

>  <MolWt>
264.30 

>  <Bioactivity>
Sulfamerazine is a sulfonamide antibacterial.

>  <Pathways>
Microbiology & Virology

>  <Target>
Antibiotic

>  <Receptor>
Dihydropteroate synthetase

>  <Reference>
1. Hong YL, et al. Antimicrob Agents Chemother. 1995, 39(8):1756-63. 
2. Friaza V, et al. Postgrad Med. 2010, 122(6):24-8. 
3. Thijssen HH. Anal Biochem. 1973, 53(2):579-85. 
4. Rajendiran N, et al. Spectrochim Acta A Mol Biomol Spectrosc, 2014, 124, 441-450.
5. De Backer P, et al. Am J Vet Res, 1982, 43(10), 1744-1751.


$$$$
T1403
  Mrv1561503291623562D          

 20 21  0  0  0  0            999 V2000
    2.0964   -2.9599    0.0000 C   0  0  0  0  0  0  0  0  0  0  0  0
    1.8414   -3.7445    0.0000 C   0  0  0  0  0  0  0  0  0  0  0  0
    1.0164   -3.7445    0.0000 N   0  0  0  0  0  0  0  0  0  0  0  0
    0.7615   -2.9599    0.0000 C   0  0  0  0  0  0  0  0  0  0  0  0
    1.4289   -2.4750    0.0000 N   0  0  0  0  0  0  0  0  0  0  0  0
    1.4289   -1.6500    0.0000 C   0  0  0  0  0  0  0  0  0  0  0  0
    0.7145   -1.2375    0.0000 O   0  0  0  0  0  0  0  0  0  0  0  0
    0.7145   -0.4125    0.0000 C   0  0  0  0  0  0  0  0  0  0  0  0
   -0.0000   -0.0000    0.0000 C   0  0  0  0  0  0  0  0  0  0  0  0
   -0.0000    0.8250    0.0000 C   0  0  0  0  0  0  0  0  0  0  0  0
    0.7145    1.2375    0.0000 C   0  0  0  0  0  0  0  0  0  0  0  0
    0.7145    2.0625    0.0000 Cl  0  0  0  0  0  0  0  0  0  0  0  0
    1.4289    0.8250    0.0000 C   0  0  0  0  0  0  0  0  0  0  0  0
    1.4289   -0.0000    0.0000 C   0  0  0  0  0  0  0  0  0  0  0  0
    2.1434   -1.2375    0.0000 C   0  0  0  0  0  0  0  0  0  0  0  0
    2.8579   -1.6500    0.0000 C   0  0  0  0  0  0  0  0  0  0  0  0
    2.4454   -2.3645    0.0000 C   0  0  0  0  0  0  0  0  0  0  0  0
    3.2704   -0.9355    0.0000 C   0  0  0  0  0  0  0  0  0  0  0  0
    3.5724   -2.0625    0.0000 C   0  0  0  0  0  0  0  0  0  0  0  0
    2.1434   -0.4125    0.0000 O   0  0  0  0  0  0  0  0  0  0  0  0
  1  2  2  0  0  0  0
  2  3  1  0  0  0  0
  3  4  2  0  0  0  0
  4  5  1  0  0  0  0
  1  5  1  0  0  0  0
  5  6  1  0  0  0  0
  6  7  1  0  0  0  0
  7  8  1  0  0  0  0
  8  9  2  0  0  0  0
  9 10  1  0  0  0  0
 10 11  2  0  0  0  0
 11 12  1  0  0  0  0
 11 13  1  0  0  0  0
 13 14  2  0  0  0  0
  8 14  1  0  0  0  0
  6 15  1  0  0  0  0
 15 16  1  0  0  0  0
 16 17  1  0  0  0  0
 16 18  1  0  0  0  0
 16 19  1  0  0  0  0
 15 20  2  0  0  0  0
M  END
>  <Name>
Climbazole

>  <CAS>
38083-17-9

>  <Formula>
C15H17ClN2O2

>  <MolWt>
292.77 

>  <Bioactivity>
Climbazole is a broad-spectrum imidazole antifungal agent that can provide anti-dandruff benefits.

>  <Pathways>
Microbiology & Virology

>  <Target>
Antifungal

>  <Receptor>
Others

>  <Reference>
1. Pérez-Rivera AA, et al. Mutat Res. 2009 Jan;672(1):27-39.

$$$$
T0646
  Mrv1561503291623562D          

 11 11  0  0  0  0            999 V2000
    1.4289    0.8250    0.0000 C   0  0  0  0  0  0  0  0  0  0  0  0
    1.4289    0.0000    0.0000 C   0  0  0  0  0  0  0  0  0  0  0  0
    2.1434   -0.4125    0.0000 N   0  0  0  0  0  0  0  0  0  0  0  0
    0.7145   -0.4125    0.0000 C   0  0  0  0  0  0  0  0  0  0  0  0
   -0.0000    0.0000    0.0000 C   0  0  0  0  0  0  0  0  0  0  0  0
   -0.0000    0.8250    0.0000 C   0  0  0  0  0  0  0  0  0  0  0  0
    0.7145    1.2375    0.0000 C   0  0  0  0  0  0  0  0  0  0  0  0
    0.7145    2.0625    0.0000 C   0  0  0  0  0  0  0  0  0  0  0  0
    0.0000    2.4750    0.0000 O   0  0  0  0  0  0  0  0  0  0  0  0
    1.4289    2.4750    0.0000 O   0  0  0  0  0  0  0  0  0  0  0  0
   -0.7145    1.2375    0.0000 O   0  0  0  0  0  0  0  0  0  0  0  0
  1  2  2  0  0  0  0
  2  3  1  0  0  0  0
  2  4  1  0  0  0  0
  4  5  2  0  0  0  0
  5  6  1  0  0  0  0
  6  7  2  0  0  0  0
  1  7  1  0  0  0  0
  7  8  1  0  0  0  0
  8  9  1  0  0  0  0
  8 10  2  0  0  0  0
  6 11  1  0  0  0  0
M  END
>  <Name>
Mesalamine

>  <CAS>
89-57-6

>  <Formula>
C7H7NO3

>  <MolWt>
153.14 

>  <Bioactivity>
An anti-inflammatory agent, structurally related to the SALICYLATES, which is active in INFLAMMATORY BOWEL DISEASE. It is considered to be the active moiety of SULPHASALAZINE. (From Martindale, The Extra Pharmacopoeia, 30th ed) 

>  <Pathways>
Neuroscience;Immunology/Inflammation;Metabolism

>  <Target>
NF-?B inhibitor;PPAR agonist;MPO inhibitor;COX inhibitor

>  <Receptor>
NF-?B kinase;PPAR gamma ;MPO;Prostaglandin G/H synthase;ALOX5

>  <Reference>
1. Mifflin RC, et al. Mol Pharmacol. 2004 Feb;65(2):470-8.

$$$$
T0738
  Mrv1561503291623562D          

  4  3  0  0  0  0            999 V2000
    1.2375    0.7145    0.0000 O   0  0  0  0  0  0  0  0  0  0  0  0
    0.8250    0.0000    0.0000 C   0  0  0  0  0  0  0  0  0  0  0  0
    1.2375   -0.7145    0.0000 N   0  0  0  0  0  0  0  0  0  0  0  0
    0.0000    0.0000    0.0000 N   0  0  0  0  0  0  0  0  0  0  0  0
  1  2  2  0  0  0  0
  2  3  1  0  0  0  0
  2  4  1  0  0  0  0
M  END
>  <Name>
Urea

>  <CAS>
57-13-6

>  <Formula>
CH4N2O

>  <MolWt>
60.06 

>  <Bioactivity>
A compound formed in the liver from ammonia produced by the deamination of amino acids. It is the principal end product of protein catabolism and constitutes about one half of the total urinary solids.


>  <Pathways>
Enzyme

>  <Target>
Carbonic anhydrase, beta Catenin

>  <Receptor>
Arginase-1,  CA 2, Catenin beta-1,  Sulfoxide reductase catalytic subunit YedY, DHFR

>  <Reference>
1. Shen S, et al. Environ Sci Pollut Res Int. 2014 Nov;21(21):12563-8.

$$$$
100-69-6
  Mrv1561503291623562D          

  8  8  0  0  0  0            999 V2000
    0.0000    0.8250    0.0000 C   0  0  0  0  0  0  0  0  0  0  0  0
    0.7145    1.2375    0.0000 C   0  0  0  0  0  0  0  0  0  0  0  0
    0.7145    2.0625    0.0000 C   0  0  0  0  0  0  0  0  0  0  0  0
    0.0000    2.4750    0.0000 C   0  0  0  0  0  0  0  0  0  0  0  0
    1.4289    0.8250    0.0000 N   0  0  0  0  0  0  0  0  0  0  0  0
    1.4289   -0.0000    0.0000 C   0  0  0  0  0  0  0  0  0  0  0  0
    0.7145   -0.4125    0.0000 C   0  0  0  0  0  0  0  0  0  0  0  0
   -0.0000    0.0000    0.0000 C   0  0  0  0  0  0  0  0  0  0  0  0
  1  2  2  0  0  0  0
  2  3  1  0  0  0  0
  3  4  2  0  0  0  0
  2  5  1  0  0  0  0
  5  6  2  0  0  0  0
  6  7  1  0  0  0  0
  7  8  2  0  0  0  0
  1  8  1  0  0  0  0
M  END
>  <Name>
2-Vinylpyridine

>  <CAS>
100-69-6

>  <Formula>
C7H7N

>  <MolWt>
105.14 

>  <Bioactivity>
mainly used in synthetic pyridine-styrene-butadiene latex, also used in the manufacture of silicon and Bestatin hydrochloride and other drugs.

>  <Pathways>
Others

>  <Target>
Intermediates

>  <Receptor>
Others

>  <Reference>
1. Yang X, et al. Inorg Chem. 2014 Dec 15;53(24):12986-3000. 

$$$$
99-89-8
  Mrv1561503291623562D          

 10 10  0  0  0  0            999 V2000
    1.4289   -0.0000    0.0000 C   0  0  0  0  0  0  0  0  0  0  0  0
    0.7145   -0.4125    0.0000 C   0  0  0  0  0  0  0  0  0  0  0  0
   -0.0000   -0.0000    0.0000 C   0  0  0  0  0  0  0  0  0  0  0  0
   -0.0000    0.8250    0.0000 C   0  0  0  0  0  0  0  0  0  0  0  0
    0.7145    1.2375    0.0000 C   0  0  0  0  0  0  0  0  0  0  0  0
    1.4289    0.8250    0.0000 C   0  0  0  0  0  0  0  0  0  0  0  0
    0.7145    2.0625    0.0000 O   0  0  0  0  0  0  0  0  0  0  0  0
    0.7145   -1.2375    0.0000 C   0  0  0  0  0  0  0  0  0  0  0  0
    1.4289   -1.6500    0.0000 C   0  0  0  0  0  0  0  0  0  0  0  0
   -0.0000   -1.6500    0.0000 C   0  0  0  0  0  0  0  0  0  0  0  0
  1  2  2  0  0  0  0
  2  3  1  0  0  0  0
  3  4  2  0  0  0  0
  4  5  1  0  0  0  0
  5  6  2  0  0  0  0
  1  6  1  0  0  0  0
  5  7  1  0  0  0  0
  2  8  1  0  0  0  0
  8  9  1  0  0  0  0
  8 10  1  0  0  0  0
M  END
>  <Name>
4-Isopropylphenol

>  <CAS>
99-89-8

>  <Formula>
C9H12O

>  <MolWt>
136.19 

>  <Bioactivity>
4-Isopropylphenol is corrosive to the skin and cornea. 

>  <Pathways>
Others

>  <Target>
Intermediates

>  <Receptor>
Others

>  <Reference>
1. Choi K, et al. Environ Toxicol. 2004 Feb;19(1):45-50.

$$$$
41945-48-6
  Mrv1561503291623562D          

 40 42  0  0  1  0            999 V2000
   -1.3426   -4.7566    0.0000 C   0  0  0  0  0  0  0  0  0  0  0  0
   -1.8946   -5.3697    0.0000 C   0  0  0  0  0  0  0  0  0  0  0  0
   -2.7016   -5.1982    0.0000 C   0  0  0  0  0  0  0  0  0  0  0  0
   -2.9565   -4.4136    0.0000 C   0  0  0  0  0  0  0  0  0  0  0  0
   -3.7635   -4.2420    0.0000 C   0  0  0  0  0  0  0  0  0  0  0  0
   -4.3155   -4.8551    0.0000 C   0  0  0  0  0  0  0  0  0  0  0  0
   -4.0606   -5.6398    0.0000 C   0  0  0  0  0  0  0  0  0  0  0  0
   -3.2536   -5.8113    0.0000 C   0  0  0  0  0  0  0  0  0  0  0  0
   -2.9987   -6.5959    0.0000 O   0  0  0  0  0  0  0  0  0  0  0  0
   -5.1225   -4.6836    0.0000 C   0  0  0  0  0  0  0  0  0  0  0  0
   -5.3774   -3.8990    0.0000 C   0  0  0  0  0  0  0  0  0  0  0  0
   -6.1844   -3.7275    0.0000 O   0  0  0  0  0  0  0  0  0  0  0  0
   -4.8254   -3.2859    0.0000 C   0  0  0  0  0  0  0  0  0  0  0  0
   -4.0184   -3.4574    0.0000 C   0  0  0  0  0  0  0  0  0  0  0  0
   -3.2115   -3.6290    0.0000 C   0  0  0  0  0  0  0  0  0  0  0  0
   -2.4045   -3.8005    0.0000 C   0  0  0  0  0  0  0  0  0  0  0  0
   -1.5975   -3.9720    0.0000 C   0  0  0  0  0  0  0  0  0  0  0  0
   -1.0455   -3.3589    0.0000 O   0  0  0  0  0  0  0  0  0  0  0  0
   -1.4821   -6.0842    0.0000 C   0  0  0  0  0  0  0  0  0  0  0  0
   -0.6751   -5.9127    0.0000 C   0  0  0  0  0  0  0  0  0  0  0  0
   -0.5889   -5.0922    0.0000 C   0  0  0  0  0  0  0  0  0  0  0  0
    0.1256   -4.6797    0.0000 C   0  0  0  0  0  0  0  0  0  0  0  0
    0.8400   -5.0922    0.0000 C   0  0  0  0  0  0  0  0  0  0  0  0
    1.5545   -4.6797    0.0000 C   0  0  0  0  0  0  0  0  0  0  0  0
    2.2690   -5.0922    0.0000 C   0  0  0  0  0  0  0  0  0  0  0  0
    2.2690   -5.9172    0.0000 O   0  0  0  0  0  0  0  0  0  0  0  0
    2.9835   -4.6797    0.0000 N   0  0  0  0  0  0  0  0  0  0  0  0
    3.6979   -5.0922    0.0000 C   0  0  0  0  0  0  0  0  0  0  0  0
    4.4124   -4.6797    0.0000 C   0  0  0  0  0  0  0  0  0  0  0  0
    4.4124   -3.8547    0.0000 O   0  0  0  0  0  0  0  0  0  0  0  0
    5.1269   -5.0922    0.0000 N   0  0  0  0  0  0  0  0  0  0  0  0
    5.8413   -4.6797    0.0000 C   0  0  0  0  0  0  0  0  0  0  0  0
    6.5558   -5.0922    0.0000 C   0  0  0  0  0  0  0  0  0  0  0  0
    7.2703   -4.6797    0.0000 S   0  0  0  0  0  0  0  0  0  0  0  0
    7.9847   -4.2672    0.0000 O   0  5  0  0  0  0  0  0  0  0  0  0
    7.6828   -5.3942    0.0000 O   0  0  0  0  0  0  0  0  0  0  0  0
    6.8578   -3.9652    0.0000 O   0  0  0  0  0  0  0  0  0  0  0  0
    0.1256   -3.8547    0.0000 C   0  0  0  0  0  0  0  0  0  0  0  0
   -0.7295   -4.2046    0.0000 C   0  0  0  0  0  0  0  0  0  0  0  0
    8.6992   -3.8547    0.0000 Na  0  3  0  0  0  0  0  0  0  0  0  0
  1  2  1  0  0  0  0
  2  3  1  0  0  0  0
  3  4  1  0  0  0  0
  4  5  1  0  0  0  0
  5  6  1  0  0  0  0
  6  7  1  0  0  0  0
  7  8  1  0  0  0  0
  3  8  1  0  0  0  0
  8  9  1  0  0  0  0
  6 10  1  0  0  0  0
 10 11  1  0  0  0  0
 11 12  1  0  0  0  0
 11 13  1  0  0  0  0
 13 14  1  0  0  0  0
  5 14  1  0  0  0  0
  5 15  1  0  0  0  0
  4 16  1  0  0  0  0
 16 17  1  0  0  0  0
  1 17  1  0  0  0  0
 17 18  1  0  0  0  0
  2 19  1  0  0  0  0
 19 20  1  0  0  0  0
 20 21  1  0  0  0  0
  1 21  1  0  0  0  0
 21 22  1  0  0  0  0
 22 23  1  0  0  0  0
 23 24  1  0  0  0  0
 24 25  1  0  0  0  0
 25 26  2  0  0  0  0
 25 27  1  0  0  0  0
 27 28  1  0  0  0  0
 28 29  1  0  0  0  0
 29 30  2  0  0  0  0
 29 31  1  0  0  0  0
 31 32  1  0  0  0  0
 32 33  1  0  0  0  0
 33 34  1  0  0  0  0
 34 35  1  0  0  0  0
 34 36  2  0  0  0  0
 34 37  2  0  0  0  0
 22 38  1  0  0  0  0
  1 39  1  0  0  0  0
M  CHG  2  35  -1  40   1
M  END
>  <Name>
Sodium tauroglycocholate

>  <CAS>
41945-48-6

>  <Formula>
C28H47N2NaO8S

>  <MolWt>
594.74 

>  <Bioactivity>
N/A

>  <Pathways>
Metabolism

>  <Target>
Biliation activator

>  <Receptor>
biliation

>  <Reference>
1. Müller CA, et al. Pancreas. 2012 Oct;41(7):1086-91. 

$$$$
1210-35-1
  Mrv1561503291623562D          

 16 18  0  0  0  0            999 V2000
    4.0859    1.1398    0.0000 C   0  0  0  0  0  0  0  0  0  0  0  0
    4.8742    1.3830    0.0000 C   0  0  0  0  0  0  0  0  0  0  0  0
    5.0578    2.1873    0.0000 C   0  0  0  0  0  0  0  0  0  0  0  0
    4.4530    2.7485    0.0000 C   0  0  0  0  0  0  0  0  0  0  0  0
    3.6647    2.5053    0.0000 C   0  0  0  0  0  0  0  0  0  0  0  0
    3.4811    1.7010    0.0000 C   0  0  0  0  0  0  0  0  0  0  0  0
    2.7378    1.3430    0.0000 C   0  0  0  0  0  0  0  0  0  0  0  0
    2.7378    0.5180    0.0000 O   0  0  0  0  0  0  0  0  0  0  0  0
    1.9945    1.7010    0.0000 C   0  0  0  0  0  0  0  0  0  0  0  0
    1.8109    2.5053    0.0000 C   0  0  0  0  0  0  0  0  0  0  0  0
    2.3253    3.1503    0.0000 C   0  0  0  0  0  0  0  0  0  0  0  0
    3.1503    3.1503    0.0000 C   0  0  0  0  0  0  0  0  0  0  0  0
    1.0226    2.7485    0.0000 C   0  0  0  0  0  0  0  0  0  0  0  0
    0.4178    2.1873    0.0000 C   0  0  0  0  0  0  0  0  0  0  0  0
    0.6014    1.3830    0.0000 C   0  0  0  0  0  0  0  0  0  0  0  0
    1.3897    1.1398    0.0000 C   0  0  0  0  0  0  0  0  0  0  0  0
  1  2  2  0  0  0  0
  2  3  1  0  0  0  0
  3  4  2  0  0  0  0
  4  5  1  0  0  0  0
  5  6  2  0  0  0  0
  1  6  1  0  0  0  0
  6  7  1  0  0  0  0
  7  8  2  0  0  0  0
  7  9  1  0  0  0  0
  9 10  2  0  0  0  0
 10 11  1  0  0  0  0
 11 12  1  0  0  0  0
  5 12  1  0  0  0  0
 10 13  1  0  0  0  0
 13 14  2  0  0  0  0
 14 15  1  0  0  0  0
 15 16  2  0  0  0  0
  9 16  1  0  0  0  0
M  END
>  <Name>
Dibenzosuberone

>  <CAS>
1210-35-1

>  <Formula>
C15H12O

>  <MolWt>
208.26 

>  <Bioactivity>
Pharmaceutical intermediates for the synthesis of drug amitriptyline.

>  <Pathways>
Others

>  <Target>
Intermediates

>  <Receptor>
Others

>  <Reference>
1. Merkas S, et al. Molecules. 2005 Dec 31;10(12):1429-37.

$$$$
T0764
  Mrv1561503291623562D          

 18 19  0  0  0  0            999 V2000
   -0.0000   -1.6500    0.0000 C   0  0  0  0  0  0  0  0  0  0  0  0
   -0.0000   -2.4750    0.0000 C   0  0  0  0  0  0  0  0  0  0  0  0
    0.7145   -2.8875    0.0000 C   0  0  0  0  0  0  0  0  0  0  0  0
    1.4289   -2.4750    0.0000 O   0  0  0  0  0  0  0  0  0  0  0  0
    2.1434   -2.8875    0.0000 O   0  0  0  0  0  0  0  0  0  0  0  0
    2.8579   -2.4750    0.0000 C   0  0  0  0  0  0  0  0  0  0  0  0
    3.5724   -2.8875    0.0000 C   0  0  0  0  0  0  0  0  0  0  0  0
    4.2868   -2.4750    0.0000 C   0  0  0  0  0  0  0  0  0  0  0  0
    5.0013   -2.8875    0.0000 C   0  0  0  0  0  0  0  0  0  0  0  0
    5.0013   -3.7125    0.0000 C   0  0  0  0  0  0  0  0  0  0  0  0
    4.2868   -4.1250    0.0000 C   0  0  0  0  0  0  0  0  0  0  0  0
    3.5724   -3.7125    0.0000 C   0  0  0  0  0  0  0  0  0  0  0  0
    2.8579   -1.6500    0.0000 O   0  0  0  0  0  0  0  0  0  0  0  0
    0.7145   -3.7125    0.0000 O   0  0  0  0  0  0  0  0  0  0  0  0
   -0.7145   -2.8875    0.0000 C   0  0  0  0  0  0  0  0  0  0  0  0
   -1.4289   -2.4750    0.0000 C   0  0  0  0  0  0  0  0  0  0  0  0
   -1.4289   -1.6500    0.0000 C   0  0  0  0  0  0  0  0  0  0  0  0
   -0.7145   -1.2375    0.0000 C   0  0  0  0  0  0  0  0  0  0  0  0
  1  2  2  0  0  0  0
  2  3  1  0  0  0  0
  3  4  1  0  0  0  0
  4  5  1  0  0  0  0
  5  6  1  0  0  0  0
  6  7  1  0  0  0  0
  7  8  2  0  0  0  0
  8  9  1  0  0  0  0
  9 10  2  0  0  0  0
 10 11  1  0  0  0  0
 11 12  2  0  0  0  0
  7 12  1  0  0  0  0
  6 13  2  0  0  0  0
  3 14  2  0  0  0  0
  2 15  1  0  0  0  0
 15 16  2  0  0  0  0
 16 17  1  0  0  0  0
 17 18  2  0  0  0  0
  1 18  1  0  0  0  0
M  END
>  <Name>
Benzoyl peroxide

>  <CAS>
94-36-0

>  <Formula>
C14H10O4

>  <MolWt>
242.23 

>  <Bioactivity>
A peroxide derivative that has been used topically for BURNS and as a dermatologic agent in the treatment of ACNE and POISON IVY DERMATITIS. It is used also as a bleach in the food industry.


>  <Pathways>
Immunology/Inflammation

>  <Target>
ROS activator

>  <Receptor>
ROS activator

>  <Reference>
1. Bojar RA, et al. Br J Dermatol. 1995 Feb;132(2):204-8.

$$$$
57-41-0
  Mrv1561503291623562D          

 19 21  0  0  0  0            999 V2000
    0.5420    0.3405    0.0000 C   0  0  0  0  0  0  0  0  0  0  0  0
    1.0940    0.9536    0.0000 C   0  0  0  0  0  0  0  0  0  0  0  0
    1.9010    0.7820    0.0000 C   0  0  0  0  0  0  0  0  0  0  0  0
    2.1559   -0.0026    0.0000 C   0  0  0  0  0  0  0  0  0  0  0  0
    1.6039   -0.6157    0.0000 C   0  0  0  0  0  0  0  0  0  0  0  0
    0.7969   -0.4441    0.0000 C   0  0  0  0  0  0  0  0  0  0  0  0
    0.2449   -1.0572    0.0000 C   0  0  0  0  0  0  0  0  0  0  0  0
   -0.3071   -0.4441    0.0000 C   0  0  0  0  0  0  0  0  0  0  0  0
   -1.1141   -0.6157    0.0000 C   0  0  0  0  0  0  0  0  0  0  0  0
   -1.6662   -0.0026    0.0000 C   0  0  0  0  0  0  0  0  0  0  0  0
   -1.4112    0.7820    0.0000 C   0  0  0  0  0  0  0  0  0  0  0  0
   -0.6042    0.9536    0.0000 C   0  0  0  0  0  0  0  0  0  0  0  0
   -0.0522    0.3405    0.0000 C   0  0  0  0  0  0  0  0  0  0  0  0
    0.9123   -1.5422    0.0000 N   0  0  0  0  0  0  0  0  0  0  0  0
    0.6574   -2.3268    0.0000 C   0  0  0  0  0  0  0  0  0  0  0  0
    1.1423   -2.9942    0.0000 O   0  0  0  0  0  0  0  0  0  0  0  0
   -0.1676   -2.3268    0.0000 N   0  0  0  0  0  0  0  0  0  0  0  0
   -0.4226   -1.5422    0.0000 C   0  0  0  0  0  0  0  0  0  0  0  0
   -1.2072   -1.2872    0.0000 O   0  0  0  0  0  0  0  0  0  0  0  0
  1  2  2  0  0  0  0
  2  3  1  0  0  0  0
  3  4  2  0  0  0  0
  4  5  1  0  0  0  0
  5  6  2  0  0  0  0
  1  6  1  0  0  0  0
  6  7  1  0  0  0  0
  7  8  1  0  0  0  0
  8  9  2  0  0  0  0
  9 10  1  0  0  0  0
 10 11  2  0  0  0  0
 11 12  1  0  0  0  0
 12 13  2  0  0  0  0
  8 13  1  0  0  0  0
  7 14  1  0  0  0  0
 14 15  1  0  0  0  0
 15 16  2  0  0  0  0
 15 17  1  0  0  0  0
 17 18  1  0  0  0  0
  7 18  1  0  0  0  0
 18 19  2  0  0  0  0
M  END
>  <Name>
Phenytion

>  <CAS>
57-41-0

>  <Formula>
C15H12N2O2

>  <MolWt>
252.27 

>  <Bioactivity>
Phenytoin is an inactive voltage-gated sodium channel stabilizer.

>  <Pathways>
Membrane Transporter/Ion Channel

>  <Target>
Sodium Channel inhibitor

>  <Receptor>
Sodium Channel

>  <Reference>
1. Owoeye O, et al. J Diet Suppl. 2015 Mar;12(1):105-17.

$$$$
102-60-3
  Mrv1561503291623562D          

 20 19  0  0  0  0            999 V2000
    5.0627   -1.1822    0.0000 C   0  0  0  0  0  0  0  0  0  0  0  0
    4.2526   -1.3381    0.0000 N   0  0  0  0  0  0  0  0  0  0  0  0
    3.9825   -2.1177    0.0000 C   0  0  0  0  0  0  0  0  0  0  0  0
    4.5226   -2.7413    0.0000 C   0  0  0  0  0  0  0  0  0  0  0  0
    5.3328   -2.5854    0.0000 C   0  0  0  0  0  0  0  0  0  0  0  0
    4.2526   -3.5209    0.0000 O   0  0  0  0  0  0  0  0  0  0  0  0
    3.7125   -0.7145    0.0000 C   0  0  0  0  0  0  0  0  0  0  0  0
    2.9024   -0.8704    0.0000 C   0  0  0  0  0  0  0  0  0  0  0  0
    2.6323   -1.6499    0.0000 C   0  0  0  0  0  0  0  0  0  0  0  0
    2.3623   -0.2467    0.0000 O   0  0  0  0  0  0  0  0  0  0  0  0
    5.3328   -0.4027    0.0000 C   0  0  0  0  0  0  0  0  0  0  0  0
    6.1429   -0.2467    0.0000 N   0  0  0  0  0  0  0  0  0  0  0  0
    6.4129    0.5328    0.0000 C   0  0  0  0  0  0  0  0  0  0  0  0
    5.8729    1.1565    0.0000 C   0  0  0  0  0  0  0  0  0  0  0  0
    6.1429    1.9360    0.0000 C   0  0  0  0  0  0  0  0  0  0  0  0
    5.0627    1.0005    0.0000 O   0  0  0  0  0  0  0  0  0  0  0  0
    6.6830   -0.8704    0.0000 C   0  0  0  0  0  0  0  0  0  0  0  0
    7.4931   -0.7145    0.0000 C   0  0  0  0  0  0  0  0  0  0  0  0
    7.7632    0.0651    0.0000 C   0  0  0  0  0  0  0  0  0  0  0  0
    8.0332   -1.3381    0.0000 O   0  0  0  0  0  0  0  0  0  0  0  0
  1  2  1  0  0  0  0
  2  3  1  0  0  0  0
  3  4  1  0  0  0  0
  4  5  1  0  0  0  0
  4  6  1  0  0  0  0
  2  7  1  0  0  0  0
  7  8  1  0  0  0  0
  8  9  1  0  0  0  0
  8 10  1  0  0  0  0
  1 11  1  0  0  0  0
 11 12  1  0  0  0  0
 12 13  1  0  0  0  0
 13 14  1  0  0  0  0
 14 15  1  0  0  0  0
 14 16  1  0  0  0  0
 12 17  1  0  0  0  0
 17 18  1  0  0  0  0
 18 19  1  0  0  0  0
 18 20  1  0  0  0  0
M  END
>  <Name>
Edetol

>  <CAS>
102-60-3

>  <Formula>
C6H12NNaO3S

>  <MolWt>
292.41 

>  <Bioactivity>
A kind of complexing agent, used for chemical copper plating on PCB manufacturing

>  <Pathways>
Others

>  <Target>
Others

>  <Receptor>
Others

>  <Reference>
N

$$$$
494-19-9
  Mrv1561503291623562D          

 15 17  0  0  0  0            999 V2000
    4.0859    1.1398    0.0000 C   0  0  0  0  0  0  0  0  0  0  0  0
    4.8742    1.3830    0.0000 C   0  0  0  0  0  0  0  0  0  0  0  0
    5.0578    2.1873    0.0000 C   0  0  0  0  0  0  0  0  0  0  0  0
    4.4530    2.7485    0.0000 C   0  0  0  0  0  0  0  0  0  0  0  0
    3.6647    2.5053    0.0000 C   0  0  0  0  0  0  0  0  0  0  0  0
    3.4811    1.7010    0.0000 C   0  0  0  0  0  0  0  0  0  0  0  0
    2.7378    1.3430    0.0000 N   0  0  0  0  0  0  0  0  0  0  0  0
    1.9945    1.7010    0.0000 C   0  0  0  0  0  0  0  0  0  0  0  0
    1.3897    1.1398    0.0000 C   0  0  0  0  0  0  0  0  0  0  0  0
    0.6014    1.3830    0.0000 C   0  0  0  0  0  0  0  0  0  0  0  0
    0.4178    2.1873    0.0000 C   0  0  0  0  0  0  0  0  0  0  0  0
    1.0226    2.7485    0.0000 C   0  0  0  0  0  0  0  0  0  0  0  0
    1.8109    2.5053    0.0000 C   0  0  0  0  0  0  0  0  0  0  0  0
    2.3253    3.1503    0.0000 C   0  0  0  0  0  0  0  0  0  0  0  0
    3.1503    3.1503    0.0000 C   0  0  0  0  0  0  0  0  0  0  0  0
  1  2  2  0  0  0  0
  2  3  1  0  0  0  0
  3  4  2  0  0  0  0
  4  5  1  0  0  0  0
  5  6  2  0  0  0  0
  1  6  1  0  0  0  0
  6  7  1  0  0  0  0
  7  8  1  0  0  0  0
  8  9  2  0  0  0  0
  9 10  1  0  0  0  0
 10 11  2  0  0  0  0
 11 12  1  0  0  0  0
 12 13  2  0  0  0  0
  8 13  1  0  0  0  0
 13 14  1  0  0  0  0
 14 15  1  0  0  0  0
  5 15  1  0  0  0  0
M  END
>  <Name>
Iminodibenzyl

>  <CAS>
494-19-9

>  <Formula>
C14H13N

>  <MolWt>
195.26 

>  <Bioactivity>
Used for the intermediates of antiepileptic drug carbamazepine. 

>  <Pathways>
Others

>  <Target>
Intermediates

>  <Receptor>
Others

>  <Reference>
1. Dzodi? PLj, et al. J AOAC Int. 2010 Jul-Aug;93(4):1059-68.

$$$$
87-62-7
  Mrv1561503291623562D          

  9  9  0  0  0  0            999 V2000
    1.4289    0.8250    0.0000 C   0  0  0  0  0  0  0  0  0  0  0  0
    1.4289    0.0000    0.0000 C   0  0  0  0  0  0  0  0  0  0  0  0
    0.7145   -0.4125    0.0000 C   0  0  0  0  0  0  0  0  0  0  0  0
   -0.0000    0.0000    0.0000 C   0  0  0  0  0  0  0  0  0  0  0  0
   -0.0000    0.8250    0.0000 C   0  0  0  0  0  0  0  0  0  0  0  0
    0.7145    1.2375    0.0000 C   0  0  0  0  0  0  0  0  0  0  0  0
    0.7145    2.0625    0.0000 C   0  0  0  0  0  0  0  0  0  0  0  0
   -0.7145    1.2375    0.0000 N   0  0  0  0  0  0  0  0  0  0  0  0
   -0.7145   -0.4125    0.0000 C   0  0  0  0  0  0  0  0  0  0  0  0
  1  2  2  0  0  0  0
  2  3  1  0  0  0  0
  3  4  2  0  0  0  0
  4  5  1  0  0  0  0
  5  6  2  0  0  0  0
  1  6  1  0  0  0  0
  6  7  1  0  0  0  0
  5  8  1  0  0  0  0
  4  9  1  0  0  0  0
M  END
>  <Name>
2,6-Dimethylaniline

>  <CAS>
87-62-7

>  <Formula>
C8H11N

>  <MolWt>
121.18 

>  <Bioactivity>
2,6-Xylidine is an aniline derivative with the chemical formula (CH3)2C6H3NH2. It is an isomer of 2,4-xylidine and 3,4-xylidine. It is a colourless liquid although commercial samples can appear to be yellow or even red. 

>  <Pathways>
Others

>  <Target>
Others

>  <Receptor>
Others

>  <Reference>
1. Zheng X, et al. J Food Sci. 2013 Jun; 78(6):T955-9.

$$$$
719-59-5
  Mrv1561503291623562D          

 16 17  0  0  0  0            999 V2000
    2.8579   -1.6500    0.0000 C   0  0  0  0  0  0  0  0  0  0  0  0
    2.8579   -2.4750    0.0000 C   0  0  0  0  0  0  0  0  0  0  0  0
    3.5724   -2.8875    0.0000 Cl  0  0  0  0  0  0  0  0  0  0  0  0
    2.1434   -2.8875    0.0000 C   0  0  0  0  0  0  0  0  0  0  0  0
    1.4289   -2.4750    0.0000 C   0  0  0  0  0  0  0  0  0  0  0  0
    1.4289   -1.6500    0.0000 C   0  0  0  0  0  0  0  0  0  0  0  0
    2.1434   -1.2375    0.0000 C   0  0  0  0  0  0  0  0  0  0  0  0
    2.1434   -0.4125    0.0000 C   0  0  0  0  0  0  0  0  0  0  0  0
    2.8579   -0.0000    0.0000 C   0  0  0  0  0  0  0  0  0  0  0  0
    2.8579    0.8250    0.0000 C   0  0  0  0  0  0  0  0  0  0  0  0
    3.5724    1.2375    0.0000 C   0  0  0  0  0  0  0  0  0  0  0  0
    4.2868    0.8250    0.0000 C   0  0  0  0  0  0  0  0  0  0  0  0
    4.2868   -0.0000    0.0000 C   0  0  0  0  0  0  0  0  0  0  0  0
    3.5724   -0.4125    0.0000 C   0  0  0  0  0  0  0  0  0  0  0  0
    1.4289    0.0000    0.0000 O   0  0  0  0  0  0  0  0  0  0  0  0
    0.7145   -1.2375    0.0000 N   0  0  0  0  0  0  0  0  0  0  0  0
  1  2  2  0  0  0  0
  2  3  1  0  0  0  0
  2  4  1  0  0  0  0
  4  5  2  0  0  0  0
  5  6  1  0  0  0  0
  6  7  2  0  0  0  0
  1  7  1  0  0  0  0
  7  8  1  0  0  0  0
  8  9  1  0  0  0  0
  9 10  2  0  0  0  0
 10 11  1  0  0  0  0
 11 12  2  0  0  0  0
 12 13  1  0  0  0  0
 13 14  2  0  0  0  0
  9 14  1  0  0  0  0
  8 15  2  0  0  0  0
  6 16  1  0  0  0  0
M  END
>  <Name>
2-Amino-5-chlorobenzophenone

>  <CAS>
719-59-5

>  <Formula>
C13H10ClNO

>  <MolWt>
231.68 

>  <Bioactivity>
Used as pharmaceutical intermediates, mainly used for the preparation of librium, stability, estazolam sedative drugs

>  <Pathways>
Others

>  <Target>
Intermediates

>  <Receptor>
Others

>  <Reference>
1. Tappin AD, et al. Environ Sci Process Impacts. 2014; 16(10):2227-36. 

$$$$
563-41-7
  Mrv1561503291623562D          

  7  4  0  0  0  0            999 V2000
    0.4125    0.0000    0.0000 H   0  3  0  0  0  0  0  0  0  0  0  0
    4.0071   -1.0003    0.0000 O   0  0  0  0  0  0  0  0  0  0  0  0
    3.5946   -0.2858    0.0000 C   0  0  0  0  0  0  0  0  0  0  0  0
    4.0071    0.4287    0.0000 N   0  0  0  0  0  0  0  0  0  0  0  0
    3.5946    1.1432    0.0000 N   0  0  0  0  0  0  0  0  0  0  0  0
    2.7696   -0.2858    0.0000 N   0  0  0  0  0  0  0  0  0  0  0  0
   -0.4125    0.0000    0.0000 Cl  0  5  0  0  0  0  0  0  0  0  0  0
  2  3  2  0  0  0  0
  3  4  1  0  0  0  0
  4  5  1  0  0  0  0
  3  6  1  0  0  0  0
M  CHG  2   1   1   7  -1
M  END
>  <Name>
Semicarbazide hydrochloride

>  <CAS>
563-41-7

>  <Formula>
CH6ClN3O

>  <MolWt>
111.53 

>  <Bioactivity>
Semicarbazide is the chemical compound with the formula OC(NH2)(N2H3). This water-soluble white solid is also known as carbohydrazide. It is a derivative of urea. 

>  <Pathways>
Others

>  <Target>
Intermediates

>  <Receptor>
Others

>  <Reference>
1. Takahashi M, et al. Toxicol Pathol. 2010 Jun;38(4):598-605. 

$$$$
2295-58-1
  Mrv1561503291623562D          

 13 13  0  0  0  0            999 V2000
    1.4289    0.8250    0.0000 C   0  0  0  0  0  0  0  0  0  0  0  0
    1.4289    0.0000    0.0000 C   0  0  0  0  0  0  0  0  0  0  0  0
    2.1434   -0.4125    0.0000 O   0  0  0  0  0  0  0  0  0  0  0  0
    0.7145   -0.4125    0.0000 C   0  0  0  0  0  0  0  0  0  0  0  0
   -0.0000    0.0000    0.0000 C   0  0  0  0  0  0  0  0  0  0  0  0
   -0.0000    0.8250    0.0000 C   0  0  0  0  0  0  0  0  0  0  0  0
    0.7145    1.2375    0.0000 C   0  0  0  0  0  0  0  0  0  0  0  0
    0.7145    2.0625    0.0000 O   0  0  0  0  0  0  0  0  0  0  0  0
   -0.7145    1.2375    0.0000 C   0  0  0  0  0  0  0  0  0  0  0  0
   -0.7145    2.0625    0.0000 C   0  0  0  0  0  0  0  0  0  0  0  0
   -1.4289    2.4750    0.0000 C   0  0  0  0  0  0  0  0  0  0  0  0
   -1.4289    0.8250    0.0000 O   0  0  0  0  0  0  0  0  0  0  0  0
   -0.7145   -0.4125    0.0000 O   0  0  0  0  0  0  0  0  0  0  0  0
  1  2  2  0  0  0  0
  2  3  1  0  0  0  0
  2  4  1  0  0  0  0
  4  5  2  0  0  0  0
  5  6  1  0  0  0  0
  6  7  2  0  0  0  0
  1  7  1  0  0  0  0
  7  8  1  0  0  0  0
  6  9  1  0  0  0  0
  9 10  1  0  0  0  0
 10 11  1  0  0  0  0
  9 12  2  0  0  0  0
  5 13  1  0  0  0  0
M  END
>  <Name>
Flopropione

>  <CAS>
2295-58-1

>  <Formula>
C9H10O4

>  <MolWt>
182.18 

>  <Bioactivity>
Flopropione is a spasmolytic or antispasmodic agent, and acts as a 5-HT1A receptor antagonist

>  <Pathways>
Neuroscience

>  <Target>
5-HT Receptor antagonist

>  <Receptor>
5-HT1A receptor

>  <Reference>
1. Aso Y, et al. J Pharm Sci, 2000, 89(3), 408-416.

$$$$
T0958
  Mrv1561503291623562D          

 24 25  0  0  1  0            999 V2000
    1.7733    0.2488    0.0000 C   0  0  0  0  0  0  0  0  0  0  0  0
    2.5579    0.5038    0.0000 S   0  0  0  0  0  0  0  0  0  0  0  0
    3.0428   -0.1637    0.0000 C   0  0  0  0  0  0  0  0  0  0  0  0
    2.5579   -0.8311    0.0000 C   0  0  0  0  0  0  0  0  0  0  0  0
    1.7733   -0.5762    0.0000 N   0  0  0  0  0  0  0  0  0  0  0  0
    0.9483   -0.5762    0.0000 C   0  0  0  0  0  0  0  0  0  0  0  0
    0.3649   -1.1595    0.0000 O   0  0  0  0  0  0  0  0  0  0  0  0
    0.9483    0.2488    0.0000 C   0  0  0  0  0  0  0  0  0  0  0  0
    0.3649    0.8322    0.0000 N   0  0  0  0  0  0  0  0  0  0  0  0
   -0.4319    0.6187    0.0000 C   0  0  0  0  0  0  0  0  0  0  0  0
   -0.6455   -0.1782    0.0000 O   0  0  0  0  0  0  0  0  0  0  0  0
   -1.0153    1.2020    0.0000 C   0  0  0  0  0  0  0  0  0  0  0  0
   -1.8122    0.9885    0.0000 C   0  0  0  0  0  0  0  0  0  0  0  0
   -2.0257    0.1916    0.0000 C   0  0  0  0  0  0  0  0  0  0  0  0
   -2.8226   -0.0219    0.0000 C   0  0  0  0  0  0  0  0  0  0  0  0
   -3.4060    0.5614    0.0000 C   0  0  0  0  0  0  0  0  0  0  0  0
   -3.1925    1.3583    0.0000 C   0  0  0  0  0  0  0  0  0  0  0  0
   -2.3956    1.5719    0.0000 C   0  0  0  0  0  0  0  0  0  0  0  0
    2.8129   -1.6157    0.0000 C   0  0  0  0  0  0  0  0  0  0  0  0
    3.6198   -1.7873    0.0000 O   0  5  0  0  0  0  0  0  0  0  0  0
    2.2608   -2.2288    0.0000 O   0  0  0  0  0  0  0  0  0  0  0  0
    3.7616    0.2413    0.0000 C   0  0  0  0  0  0  0  0  0  0  0  0
    3.7616   -0.5687    0.0000 C   0  0  0  0  0  0  0  0  0  0  0  0
    4.4268   -1.9588    0.0000 Na  0  3  0  0  0  0  0  0  0  0  0  0
  1  2  1  0  0  0  0
  2  3  1  0  0  0  0
  3  4  1  0  0  0  0
  4  5  1  0  0  0  0
  1  5  1  0  0  0  0
  5  6  1  0  0  0  0
  6  7  2  0  0  0  0
  6  8  1  0  0  0  0
  1  8  1  0  0  0  0
  8  9  1  0  0  0  0
  9 10  1  0  0  0  0
 10 11  2  0  0  0  0
 10 12  1  0  0  0  0
 12 13  1  0  0  0  0
 13 14  2  0  0  0  0
 14 15  1  0  0  0  0
 15 16  2  0  0  0  0
 16 17  1  0  0  0  0
 17 18  2  0  0  0  0
 13 18  1  0  0  0  0
  4 19  1  0  0  0  0
 19 20  1  0  0  0  0
 19 21  2  0  0  0  0
  3 22  1  0  0  0  0
  3 23  1  0  0  0  0
M  CHG  2  20  -1  24   1
M  END
>  <Name>
Penicillin G sodium salt

>  <CAS>
69-57-8

>  <Formula>
C16H17KN2O4S

>  <MolWt>
356.37 

>  <Bioactivity>
Benzylpenicillin sodium is a penicillin derivative commonly used in the form of its sodium or potassium salts in the treatment of a variety of infections. It is effective against most gram-positive bacteria and against gram-negative cocci. It has also been used as an experimental convulsant because of its actions on GAMMA-AMINOBUTYRIC ACID mediated synaptic transmission.

>  <Pathways>
Microbiology & Virology; Neuroscience

>  <Target>
Antibacterial;GABAR

>  <Receptor>
PBPs; GABA receptor

>  <Reference>
1. Jiang X, et al. Spectrochim Acta A Mol Biomol Spectrosc. 2015 Apr 5;140:474-8. 

$$$$
T1650
  Mrv1561503291623562D          

 11 12  0  0  0  0            999 V2000
    3.2789    1.2375    0.0000 C   0  0  0  0  0  0  0  0  0  0  0  0
    3.9934    0.8250    0.0000 C   0  0  0  0  0  0  0  0  0  0  0  0
    3.9934    0.0000    0.0000 C   0  0  0  0  0  0  0  0  0  0  0  0
    3.2789   -0.4125    0.0000 C   0  0  0  0  0  0  0  0  0  0  0  0
    2.5645   -0.0000    0.0000 C   0  0  0  0  0  0  0  0  0  0  0  0
    2.5645    0.8250    0.0000 C   0  0  0  0  0  0  0  0  0  0  0  0
    1.7798    1.0799    0.0000 O   0  0  0  0  0  0  0  0  0  0  0  0
    1.2949    0.4125    0.0000 C   0  0  0  0  0  0  0  0  0  0  0  0
    0.4699    0.4125    0.0000 O   0  0  0  0  0  0  0  0  0  0  0  0
    1.7798   -0.2549    0.0000 N   0  0  0  0  0  0  0  0  0  0  0  0
    4.7079   -0.4125    0.0000 Cl  0  0  0  0  0  0  0  0  0  0  0  0
  1  2  2  0  0  0  0
  2  3  1  0  0  0  0
  3  4  2  0  0  0  0
  4  5  1  0  0  0  0
  5  6  2  0  0  0  0
  1  6  1  0  0  0  0
  6  7  1  0  0  0  0
  7  8  1  0  0  0  0
  8  9  2  0  0  0  0
  8 10  1  0  0  0  0
  5 10  1  0  0  0  0
  3 11  1  0  0  0  0
M  END
>  <Name>
Chlorzoxazone

>  <CAS>
95-25-0

>  <Formula>
C7H4ClNO2

>  <MolWt>
169.57 

>  <Bioactivity>
BIIB021(CNF2024) is an orally available, fully synthetic small-molecule inhibitor of HSP90 with Ki and EC50 of 1.7 nM and 38 nM, respectively.

>  <Pathways>
Cell Cycle/Checkpoint

>  <Target>
HSP inhibitor

>  <Receptor>
HSP90

>  <Reference>
1. Lundgren, et al. Molecular Cancer Therapeutics (2009), 8(4), 921-929.

$$$$
T2184L
  Mrv1561503291623562D          

 20 20  0  0  0  0            999 V2000
    0.0376    1.3243    0.0000 C   0  0  0  0  0  0  0  0  0  0  0  0
   -0.6769    0.9118    0.0000 C   0  0  0  0  0  0  0  0  0  0  0  0
   -0.6769    0.0868    0.0000 S   0  0  0  0  0  0  0  0  0  0  0  0
    0.1481    0.0868    0.0000 O   0  0  0  0  0  0  0  0  0  0  0  0
   -1.5019    0.0868    0.0000 O   0  0  0  0  0  0  0  0  0  0  0  0
   -0.6769   -0.7382    0.0000 N   0  5  0  0  0  0  0  0  0  0  0  0
    0.0376   -1.1507    0.0000 C   0  0  0  0  0  0  0  0  0  0  0  0
    0.7521   -0.7382    0.0000 N   0  0  0  0  0  0  0  0  0  0  0  0
    1.4665   -1.1507    0.0000 C   0  0  0  0  0  0  0  0  0  0  0  0
    1.4665   -1.9757    0.0000 C   0  0  0  0  0  0  0  0  0  0  0  0
    0.7521   -2.3882    0.0000 C   0  0  0  0  0  0  0  0  0  0  0  0
    0.0376   -1.9757    0.0000 N   0  0  0  0  0  0  0  0  0  0  0  0
    0.7521   -3.2132    0.0000 C   0  0  0  0  0  0  0  0  0  0  0  0
    2.1810   -0.7382    0.0000 C   0  0  0  0  0  0  0  0  0  0  0  0
   -1.3913    1.3243    0.0000 C   0  0  0  0  0  0  0  0  0  0  0  0
   -1.3913    2.1493    0.0000 C   0  0  0  0  0  0  0  0  0  0  0  0
   -0.6769    2.5618    0.0000 C   0  0  0  0  0  0  0  0  0  0  0  0
    0.0376    2.1493    0.0000 C   0  0  0  0  0  0  0  0  0  0  0  0
   -0.6769    3.3868    0.0000 N   0  0  0  0  0  0  0  0  0  0  0  0
    4.5382    0.0000    0.0000 Na  0  3  0  0  0  0  0  0  0  0  0  0
  1  2  2  0  0  0  0
  2  3  1  0  0  0  0
  3  4  2  0  0  0  0
  3  5  2  0  0  0  0
  3  6  1  0  0  0  0
  6  7  1  0  0  0  0
  7  8  2  0  0  0  0
  8  9  1  0  0  0  0
  9 10  2  0  0  0  0
 10 11  1  0  0  0  0
 11 12  2  0  0  0  0
  7 12  1  0  0  0  0
 11 13  1  0  0  0  0
  9 14  1  0  0  0  0
  2 15  1  0  0  0  0
 15 16  2  0  0  0  0
 16 17  1  0  0  0  0
 17 18  2  0  0  0  0
  1 18  1  0  0  0  0
 17 19  1  0  0  0  0
M  CHG  2   6  -1  20   1
M  END
>  <Name>
Sulfamethazine sodium salt

>  <CAS>
1981-58-4

>  <Formula>
C12H13N4NaO2S

>  <MolWt>
300.31 

>  <Bioactivity>
Sulfamerazine is a sulfonamide antibacterial.

>  <Pathways>
Microbiology & Virology

>  <Target>
Antibacterial

>  <Receptor>
Others

>  <Reference>
1. Fukahori S, et al. J Environ Manage. 2015 Jul 1;157:103-10. 

$$$$
434-22-0
  Mrv1561503291623562D          

 20 23  0  0  1  0            999 V2000
    0.7475   -2.9779    0.0000 C   0  0  1  0  0  0  0  0  0  0  0  0
    1.5596   -2.8327    0.0000 C   0  0  1  0  0  0  0  0  0  0  0  0
    2.0914   -3.4634    0.0000 C   0  0  1  0  0  0  0  0  0  0  0  0
    2.9035   -3.3182    0.0000 C   0  0  2  0  0  0  0  0  0  0  0  0
    3.1838   -2.5422    0.0000 C   0  0  0  0  0  0  0  0  0  0  0  0
    3.9960   -2.3970    0.0000 C   0  0  0  0  0  0  0  0  0  0  0  0
    4.5278   -3.0277    0.0000 C   0  0  0  0  0  0  0  0  0  0  0  0
    5.3399   -2.8825    0.0000 O   0  0  0  0  0  0  0  0  0  0  0  0
    4.2475   -3.8037    0.0000 C   0  0  0  0  0  0  0  0  0  0  0  0
    3.4354   -3.9489    0.0000 C   0  0  0  0  0  0  0  0  0  0  0  0
    2.6520   -1.9115    0.0000 C   0  0  0  0  0  0  0  0  0  0  0  0
    1.8399   -2.0567    0.0000 C   0  0  0  0  0  0  0  0  0  0  0  0
    1.8111   -4.2393    0.0000 C   0  0  0  0  0  0  0  0  0  0  0  0
    0.9990   -4.3845    0.0000 C   0  0  0  0  0  0  0  0  0  0  0  0
    0.4672   -3.7538    0.0000 C   0  0  2  0  0  0  0  0  0  0  0  0
   -0.3574   -3.7270    0.0000 C   0  0  1  0  0  0  0  0  0  0  0  0
   -0.8637   -4.3783    0.0000 O   0  0  0  0  0  0  0  0  0  0  0  0
   -0.5867   -2.9345    0.0000 C   0  0  0  0  0  0  0  0  0  0  0  0
    0.0962   -2.4715    0.0000 C   0  0  0  0  0  0  0  0  0  0  0  0
    0.1073   -4.4962    0.0000 C   0  0  0  0  0  0  0  0  0  0  0  0
  1  2  1  0  0  0  0
  2  3  1  0  0  0  0
  3  4  1  0  0  0  0
  4  5  1  0  0  0  0
  5  6  2  0  0  0  0
  6  7  1  0  0  0  0
  7  8  2  0  0  0  0
  7  9  1  0  0  0  0
  9 10  1  0  0  0  0
  4 10  1  6  0  0  0
  5 11  1  0  0  0  0
 11 12  1  0  0  0  0
  2 12  1  6  0  0  0
  3 13  1  1  0  0  0
 13 14  1  0  0  0  0
 14 15  1  0  0  0  0
  1 15  1  0  0  0  0
 15 16  1  0  0  0  0
 16 17  1  1  0  0  0
 16 18  1  0  0  0  0
 18 19  1  0  0  0  0
  1 19  1  1  0  0  0
 15 20  1  1  0  0  0
M  END
>  <Name>
Nandrolone

>  <CAS>
434-22-0

>  <Formula>
C18H26O2

>  <MolWt>
274.40 

>  <Bioactivity>
Nandrolone (19-nortestosterone) is an anabolic steroid that may be present naturally in the human body, albeit in minute quantities of less than 0.4 ng/ml.

>  <Pathways>
Others

>  <Target>
Others

>  <Receptor>
Others

>  <Reference>
1. Sirianni R, et al. Mol Cell Endocrinol. 2012 Nov 5;363(1-2):100-10.

$$$$
66-84-2
  Mrv1561503291623562D          

 14 11  0  0  0  0            999 V2000
    0.4125    0.0000    0.0000 H   0  3  0  0  0  0  0  0  0  0  0  0
    3.0127    0.2062    0.0000 C   0  0  0  0  0  0  0  0  0  0  0  0
    2.2982   -0.2063    0.0000 O   0  0  0  0  0  0  0  0  0  0  0  0
    3.7272   -0.2063    0.0000 C   0  0  0  0  0  0  0  0  0  0  0  0
    3.7272   -1.0313    0.0000 O   0  0  0  0  0  0  0  0  0  0  0  0
    4.4416    0.2063    0.0000 C   0  0  0  0  0  0  0  0  0  0  0  0
    4.4416    1.0313    0.0000 O   0  0  0  0  0  0  0  0  0  0  0  0
    5.1561   -0.2062    0.0000 C   0  0  0  0  0  0  0  0  0  0  0  0
    5.1561   -1.0312    0.0000 O   0  0  0  0  0  0  0  0  0  0  0  0
    5.8706    0.2063    0.0000 C   0  0  0  0  0  0  0  0  0  0  0  0
    5.8706    1.0313    0.0000 N   0  0  0  0  0  0  0  0  0  0  0  0
    6.5850   -0.2062    0.0000 C   0  0  0  0  0  0  0  0  0  0  0  0
    7.2995    0.2063    0.0000 O   0  0  0  0  0  0  0  0  0  0  0  0
   -0.4125    0.0000    0.0000 Cl  0  5  0  0  0  0  0  0  0  0  0  0
  2  3  1  0  0  0  0
  2  4  1  0  0  0  0
  4  5  1  0  0  0  0
  4  6  1  0  0  0  0
  6  7  1  0  0  0  0
  6  8  1  0  0  0  0
  8  9  1  0  0  0  0
  8 10  1  0  0  0  0
 10 11  1  0  0  0  0
 10 12  1  0  0  0  0
 12 13  2  0  0  0  0
M  CHG  2   1   1  14  -1
M  END
>  <Name>
Glucosamine HCl

>  <CAS>
66-84-2

>  <Formula>
C6H13NO5.HCl

>  <MolWt>
215.63 

>  <Bioactivity>
Extracted from natural chitin;Store the product in sealed, cool and dry condition

>  <Pathways>
Others

>  <Target>
Others

>  <Receptor>
Others

>  <Reference>
1. Jamialahmadi K, et al. Environ Toxicol Pharmacol. 2014 Jul;38(1):212-9.

$$$$
652-37-9
  Mrv1561503291623562D          

 18 18  0  0  0  0            999 V2000
   -0.6284   -0.6979    0.0000 C   0  0  0  0  0  0  0  0  0  0  0  0
   -0.1435   -1.3654    0.0000 N   0  0  0  0  0  0  0  0  0  0  0  0
    0.6411   -1.1104    0.0000 C   0  0  0  0  0  0  0  0  0  0  0  0
    0.6411   -0.2854    0.0000 C   0  0  0  0  0  0  0  0  0  0  0  0
   -0.1435   -0.0305    0.0000 N   0  0  0  0  0  0  0  0  0  0  0  0
   -0.3984    0.7541    0.0000 C   0  0  0  0  0  0  0  0  0  0  0  0
    0.1536    1.3672    0.0000 C   0  0  0  0  0  0  0  0  0  0  0  0
   -0.1014    2.1518    0.0000 O   0  5  0  0  0  0  0  0  0  0  0  0
    0.9606    1.1957    0.0000 O   0  0  0  0  0  0  0  0  0  0  0  0
    1.3556    0.1271    0.0000 C   0  0  0  0  0  0  0  0  0  0  0  0
    1.3556    0.9521    0.0000 O   0  0  0  0  0  0  0  0  0  0  0  0
    2.0701   -0.2854    0.0000 N   0  0  0  0  0  0  0  0  0  0  0  0
    2.0701   -1.1104    0.0000 C   0  0  0  0  0  0  0  0  0  0  0  0
    2.7845   -1.5229    0.0000 O   0  0  0  0  0  0  0  0  0  0  0  0
    1.3556   -1.5229    0.0000 N   0  0  0  0  0  0  0  0  0  0  0  0
    1.3556   -2.3479    0.0000 C   0  0  0  0  0  0  0  0  0  0  0  0
    2.7845    0.1271    0.0000 C   0  0  0  0  0  0  0  0  0  0  0  0
   -0.3563    2.9365    0.0000 Na  0  3  0  0  0  0  0  0  0  0  0  0
  1  2  2  0  0  0  0
  2  3  1  0  0  0  0
  3  4  2  0  0  0  0
  4  5  1  0  0  0  0
  1  5  1  0  0  0  0
  5  6  1  0  0  0  0
  6  7  1  0  0  0  0
  7  8  1  0  0  0  0
  7  9  2  0  0  0  0
  4 10  1  0  0  0  0
 10 11  2  0  0  0  0
 10 12  1  0  0  0  0
 12 13  1  0  0  0  0
 13 14  2  0  0  0  0
 13 15  1  0  0  0  0
  3 15  1  0  0  0  0
 15 16  1  0  0  0  0
 12 17  1  0  0  0  0
M  CHG  2   8  -1  18   1
M  END
>  <Name>
Theophylline-7-acetic acid

>  <CAS>
652-37-9

>  <Formula>
C9H10N4O4

>  <MolWt>
238.20 

>  <Bioactivity>
Theophylline-7-acetic acid is a stimulant drug of the xanthine chemical class. It acts as an adenosine receptor antagonist. It is combined with diphenhydramine in the pharmaceutical preparation etanautine to help offset its stimulant effects

>  <Pathways>
Others

>  <Target>
Others

>  <Receptor>
Others

>  <Reference>
1. Voynikov Y, et al. Bioorg Med Chem Lett. 2014 Jul 15; 24(14):3043-5. 

$$$$
T2224
  Mrv1561503291623562D          

 11 11  0  0  0  0            999 V2000
    1.4289   -0.0000    0.0000 C   0  0  0  0  0  0  0  0  0  0  0  0
    0.7145   -0.4125    0.0000 C   0  0  0  0  0  0  0  0  0  0  0  0
    0.7145   -1.2375    0.0000 As  0  0  0  0  0  0  0  0  0  0  0  0
    0.7145   -2.0625    0.0000 O   0  0  0  0  0  0  0  0  0  0  0  0
    1.5395   -1.2375    0.0000 O   0  0  0  0  0  0  0  0  0  0  0  0
   -0.1105   -1.2375    0.0000 O   0  0  0  0  0  0  0  0  0  0  0  0
   -0.0000   -0.0000    0.0000 C   0  0  0  0  0  0  0  0  0  0  0  0
   -0.0000    0.8250    0.0000 C   0  0  0  0  0  0  0  0  0  0  0  0
    0.7145    1.2375    0.0000 C   0  0  0  0  0  0  0  0  0  0  0  0
    1.4289    0.8250    0.0000 C   0  0  0  0  0  0  0  0  0  0  0  0
    0.7145    2.0625    0.0000 N   0  0  0  0  0  0  0  0  0  0  0  0
  1  2  2  0  0  0  0
  2  3  1  0  0  0  0
  3  4  1  0  0  0  0
  3  5  1  0  0  0  0
  3  6  2  0  0  0  0
  2  7  1  0  0  0  0
  7  8  2  0  0  0  0
  8  9  1  0  0  0  0
  9 10  2  0  0  0  0
  1 10  1  0  0  0  0
  9 11  1  0  0  0  0
M  END
>  <Name>
4-Aminophenylarsonic acid

>  <CAS>
98-50-0

>  <Formula>
C6H8AsNO3

>  <MolWt>
217.06 

>  <Bioactivity>
An arsenical which has been used as a feed additive for enteric conditions in pigs and poultry. It causes blindness and is ototoxic and nephrotoxic in animals.

>  <Pathways>
Microbiology & Virology

>  <Target>
Antibiotic

>  <Receptor>
Lysozyme C

>  <Reference>
1. Imming P, et al. Nat Rev Drug Discov. 2006, 5(10):821-34. 

$$$$
54856-23-4
  Mrv1561503291623562D          

 20 18  0  0  0  0            999 V2000
   -0.4287   -0.5775    0.0000 C   0  0  0  0  0  0  0  0  0  0  0  0
    0.2858   -0.1650    0.0000 C   0  0  0  0  0  0  0  0  0  0  0  0
    1.0003   -0.5775    0.0000 N   0  0  0  0  0  0  0  0  0  0  0  0
    1.0003   -1.4025    0.0000 C   0  0  0  0  0  0  0  0  0  0  0  0
    0.2858   -1.8150    0.0000 C   0  0  0  0  0  0  0  0  0  0  0  0
   -0.4287   -1.4025    0.0000 C   0  0  0  0  0  0  0  0  0  0  0  0
    0.2858    0.6600    0.0000 C   0  0  0  0  0  0  0  0  0  0  0  0
   -0.4287    1.0725    0.0000 C   0  0  0  0  0  0  0  0  0  0  0  0
   -0.4287    1.8975    0.0000 N   0  0  0  0  0  0  0  0  0  0  0  0
   -1.1432    2.3100    0.0000 C   0  0  0  0  0  0  0  0  0  0  0  0
    3.5931   -0.8250    0.0000 C   0  0  0  0  0  0  0  0  0  0  0  0
    3.5931    0.0000    0.0000 S   0  0  0  0  0  0  0  0  0  0  0  0
    3.5931    0.8250    0.0000 O   0  0  0  0  0  0  0  0  0  0  0  0
    4.4181   -0.0000    0.0000 O   0  0  0  0  0  0  0  0  0  0  0  0
    2.7681    0.0000    0.0000 O   0  0  0  0  0  0  0  0  0  0  0  0
    0.0000   -5.1150    0.0000 C   0  0  0  0  0  0  0  0  0  0  0  0
    0.0000   -4.2900    0.0000 S   0  0  0  0  0  0  0  0  0  0  0  0
    0.0000   -3.4650    0.0000 O   0  0  0  0  0  0  0  0  0  0  0  0
    0.8250   -4.2900    0.0000 O   0  0  0  0  0  0  0  0  0  0  0  0
   -0.8250   -4.2900    0.0000 O   0  0  0  0  0  0  0  0  0  0  0  0
  1  2  2  0  0  0  0
  2  3  1  0  0  0  0
  3  4  2  0  0  0  0
  4  5  1  0  0  0  0
  5  6  2  0  0  0  0
  1  6  1  0  0  0  0
  2  7  1  0  0  0  0
  7  8  1  0  0  0  0
  8  9  1  0  0  0  0
  9 10  1  0  0  0  0
 11 12  1  0  0  0  0
 12 13  1  0  0  0  0
 12 14  2  0  0  0  0
 12 15  2  0  0  0  0
 16 17  1  0  0  0  0
 17 18  1  0  0  0  0
 17 19  2  0  0  0  0
 17 20  2  0  0  0  0
M  END
>  <Name>
Betahistine mesylate

>  <CAS>
54856-23-4

>  <Formula>
C8H12N2.2(CH4O3S)

>  <MolWt>
328.40 

>  <Bioactivity>
Betahistine is an antivertigo drug first used for treating vertigo assosicated with Ménière’s disease. It is also commonly used for patients with balance disorders.

>  <Pathways>
Neuroscience

>  <Target>
Histamine Receptor antagonist

>  <Receptor>
Histamine H1, H3 receptor

>  <Reference>
1. Lacour M, Sterkers O. CNS Drugs. 2001; 15(11): 853-70. 

$$$$
T0430
  Mrv1561503291623562D          

 27 28  0  0  0  0            999 V2000
    2.5856   -3.1780    0.0000 C   0  0  0  0  0  0  0  0  0  0  0  0
    2.7571   -3.9849    0.0000 N   0  0  0  0  0  0  0  0  0  0  0  0
    3.5108   -4.3205    0.0000 C   0  0  0  0  0  0  0  0  0  0  0  0
    3.4246   -5.1410    0.0000 C   0  0  0  0  0  0  0  0  0  0  0  0
    2.6176   -5.3125    0.0000 N   0  0  0  0  0  0  0  0  0  0  0  0
    2.2051   -4.5980    0.0000 C   0  0  0  0  0  0  0  0  0  0  0  0
    1.3846   -4.5118    0.0000 O   0  0  0  0  0  0  0  0  0  0  0  0
    4.0377   -5.6930    0.0000 O   0  0  0  0  0  0  0  0  0  0  0  0
    4.2253   -3.9080    0.0000 N   0  0  0  0  0  0  0  0  0  0  0  0
    4.9398   -4.3205    0.0000 C   0  0  0  0  0  0  0  0  0  0  0  0
    5.6542   -3.9080    0.0000 N   0  0  0  0  0  0  0  0  0  0  0  0
    6.3687   -4.3205    0.0000 C   0  0  0  0  0  0  0  0  0  0  0  0
    7.0832   -3.9080    0.0000 N   0  0  0  0  0  0  0  0  0  0  0  0
    7.7976   -4.3205    0.0000 C   0  0  0  0  0  0  0  0  0  0  0  0
    8.5121   -3.9080    0.0000 N   0  0  0  0  0  0  0  0  0  0  0  0
    9.2266   -4.3205    0.0000 C   0  0  0  0  0  0  0  0  0  0  0  0
    9.9803   -3.9849    0.0000 N   0  0  0  0  0  0  0  0  0  0  0  0
   10.5323   -4.5980    0.0000 C   0  0  0  0  0  0  0  0  0  0  0  0
   11.3528   -4.5118    0.0000 O   0  0  0  0  0  0  0  0  0  0  0  0
   10.1198   -5.3125    0.0000 N   0  0  0  0  0  0  0  0  0  0  0  0
    9.3128   -5.1410    0.0000 C   0  0  0  0  0  0  0  0  0  0  0  0
    8.6997   -5.6930    0.0000 O   0  0  0  0  0  0  0  0  0  0  0  0
   10.1518   -3.1780    0.0000 C   0  0  0  0  0  0  0  0  0  0  0  0
   10.9364   -2.9230    0.0000 O   0  0  0  0  0  0  0  0  0  0  0  0
    7.7976   -5.1455    0.0000 O   0  0  0  0  0  0  0  0  0  0  0  0
    4.9398   -5.1455    0.0000 O   0  0  0  0  0  0  0  0  0  0  0  0
    1.8010   -2.9230    0.0000 O   0  0  0  0  0  0  0  0  0  0  0  0
  1  2  1  0  0  0  0
  2  3  1  0  0  0  0
  3  4  1  0  0  0  0
  4  5  1  0  0  0  0
  5  6  1  0  0  0  0
  2  6  1  0  0  0  0
  6  7  2  0  0  0  0
  4  8  2  0  0  0  0
  3  9  1  0  0  0  0
  9 10  1  0  0  0  0
 10 11  1  0  0  0  0
 11 12  1  0  0  0  0
 12 13  1  0  0  0  0
 13 14  1  0  0  0  0
 14 15  1  0  0  0  0
 15 16  1  0  0  0  0
 16 17  1  0  0  0  0
 17 18  1  0  0  0  0
 18 19  2  0  0  0  0
 18 20  1  0  0  0  0
 20 21  1  0  0  0  0
 16 21  1  0  0  0  0
 21 22  2  0  0  0  0
 17 23  1  0  0  0  0
 23 24  1  0  0  0  0
 14 25  2  0  0  0  0
 10 26  2  0  0  0  0
  1 27  1  0  0  0  0
M  END
>  <Name>
N,N-methylenebis N'-1-(hydroxymethyl)-2,5-dioxo-4-imidazolidinyl urea

>  <CAS>
39236-46-9

>  <Formula>
C11H16N8O8

>  <MolWt>
388.30 

>  <Bioactivity>
an antimicrobial preservative used in cosmetics;acts as a formaldehyde releaser

>  <Pathways>
Microbiology & Virology

>  <Target>
Antibiotic

>  <Receptor>
Others

>  <Reference>
1. Lehmann SV,et al.Contact Dermatitis,2006, 54 (1): 50–58.

$$$$
T1687L
  Mrv1561503291623562D          

 72 72  0  0  1  0            999 V2000
   -0.7145    0.4383    0.0000 C   0  0  0  0  0  0  0  0  0  0  0  0
   -0.0000    0.8508    0.0000 C   0  0  0  0  0  0  0  0  0  0  0  0
   -0.0000    1.6758    0.0000 O   0  0  0  0  0  0  0  0  0  0  0  0
    0.7145    0.4383    0.0000 C   0  0  0  0  0  0  0  0  0  0  0  0
    1.4289    0.8508    0.0000 C   0  0  0  0  0  0  0  0  0  0  0  0
    2.1434    0.4383    0.0000 C   0  0  0  0  0  0  0  0  0  0  0  0
    2.1434   -0.3867    0.0000 C   0  0  0  0  0  0  0  0  0  0  0  0
    1.4289   -0.7992    0.0000 C   0  0  0  0  0  0  0  0  0  0  0  0
    0.7145   -0.3867    0.0000 C   0  0  0  0  0  0  0  0  0  0  0  0
   -0.0000   -0.7992    0.0000 C   0  0  0  0  0  0  0  0  0  0  0  0
   -0.0000   -1.6242    0.0000 O   0  0  0  0  0  0  0  0  0  0  0  0
   -0.7145   -0.3867    0.0000 C   0  0  0  0  0  0  0  0  0  0  0  0
   -0.7145   -1.2117    0.0000 O   0  0  0  0  0  0  0  0  0  0  0  0
   -1.4289   -0.7992    0.0000 C   0  0  0  0  0  0  0  0  0  0  0  0
   -1.4289   -1.6242    0.0000 O   0  0  0  0  0  0  0  0  0  0  0  0
   -2.1434   -0.3867    0.0000 C   0  0  0  0  0  0  0  0  0  0  0  0
   -2.1434    0.4383    0.0000 C   0  0  0  0  0  0  0  0  0  0  0  0
   -2.8579    0.8508    0.0000 O   0  0  0  0  0  0  0  0  0  0  0  0
   -1.4289    0.8508    0.0000 C   0  0  0  0  0  0  0  0  0  0  0  0
   -1.4289    1.6758    0.0000 N   0  0  0  0  0  0  0  0  0  0  0  0
   -0.7145    2.0883    0.0000 C   0  0  0  0  0  0  0  0  0  0  0  0
   -2.1434    2.0883    0.0000 C   0  0  0  0  0  0  0  0  0  0  0  0
   -2.8579   -0.7992    0.0000 C   0  0  0  0  0  0  0  0  0  0  0  0
   -3.5724   -0.3867    0.0000 O   0  0  0  0  0  0  0  0  0  0  0  0
   -2.8579   -1.6242    0.0000 N   0  0  0  0  0  0  0  0  0  0  0  0
    1.4289   -1.6242    0.0000 O   0  0  0  0  0  0  0  0  0  0  0  0
    2.8579   -0.7992    0.0000 C   0  0  0  0  0  0  0  0  0  0  0  0
    3.5724   -0.3867    0.0000 C   0  0  0  0  0  0  0  0  0  0  0  0
    3.5724    0.4383    0.0000 C   0  0  0  0  0  0  0  0  0  0  0  0
    2.8579    0.8508    0.0000 C   0  0  0  0  0  0  0  0  0  0  0  0
    2.8579   -1.6242    0.0000 O   0  0  0  0  0  0  0  0  0  0  0  0
    1.4289    1.6758    0.0000 C   0  0  0  0  0  0  0  0  0  0  0  0
    8.3160    0.4383    0.0000 C   0  0  0  0  0  0  0  0  0  0  0  0
    9.0304    0.8508    0.0000 C   0  0  0  0  0  0  0  0  0  0  0  0
    9.0304    1.6758    0.0000 O   0  0  0  0  0  0  0  0  0  0  0  0
    9.7449    0.4383    0.0000 C   0  0  0  0  0  0  0  0  0  0  0  0
   10.4594    0.8508    0.0000 C   0  0  0  0  0  0  0  0  0  0  0  0
   11.1738    0.4383    0.0000 C   0  0  0  0  0  0  0  0  0  0  0  0
   11.1738   -0.3867    0.0000 C   0  0  0  0  0  0  0  0  0  0  0  0
   10.4594   -0.7992    0.0000 C   0  0  0  0  0  0  0  0  0  0  0  0
    9.7449   -0.3867    0.0000 C   0  0  0  0  0  0  0  0  0  0  0  0
    9.0304   -0.7992    0.0000 C   0  0  0  0  0  0  0  0  0  0  0  0
    9.0304   -1.6242    0.0000 O   0  0  0  0  0  0  0  0  0  0  0  0
    8.3160   -0.3867    0.0000 C   0  0  0  0  0  0  0  0  0  0  0  0
    8.3160   -1.2117    0.0000 O   0  0  0  0  0  0  0  0  0  0  0  0
    7.6015   -0.7992    0.0000 C   0  0  0  0  0  0  0  0  0  0  0  0
    7.6015   -1.6242    0.0000 O   0  0  0  0  0  0  0  0  0  0  0  0
    6.8870   -0.3867    0.0000 C   0  0  0  0  0  0  0  0  0  0  0  0
    6.8870    0.4383    0.0000 C   0  0  0  0  0  0  0  0  0  0  0  0
    6.1725    0.8508    0.0000 O   0  0  0  0  0  0  0  0  0  0  0  0
    7.6015    0.8508    0.0000 C   0  0  0  0  0  0  0  0  0  0  0  0
    7.6015    1.6758    0.0000 N   0  0  0  0  0  0  0  0  0  0  0  0
    8.3160    2.0883    0.0000 C   0  0  0  0  0  0  0  0  0  0  0  0
    6.8870    2.0883    0.0000 C   0  0  0  0  0  0  0  0  0  0  0  0
    6.1725   -0.7992    0.0000 C   0  0  0  0  0  0  0  0  0  0  0  0
    5.4581   -0.3867    0.0000 O   0  0  0  0  0  0  0  0  0  0  0  0
    6.1725   -1.6242    0.0000 N   0  0  0  0  0  0  0  0  0  0  0  0
   10.4594   -1.6242    0.0000 O   0  0  0  0  0  0  0  0  0  0  0  0
   11.8883   -0.7992    0.0000 C   0  0  0  0  0  0  0  0  0  0  0  0
   12.6028   -0.3867    0.0000 C   0  0  0  0  0  0  0  0  0  0  0  0
   12.6028    0.4383    0.0000 C   0  0  0  0  0  0  0  0  0  0  0  0
   11.8883    0.8508    0.0000 C   0  0  0  0  0  0  0  0  0  0  0  0
   11.8883   -1.6242    0.0000 O   0  0  0  0  0  0  0  0  0  0  0  0
   10.4594    1.6758    0.0000 C   0  0  0  0  0  0  0  0  0  0  0  0
   15.7849    0.0000    0.0000 H   0  3  0  0  0  0  0  0  0  0  0  0
    0.4125   -3.4117    0.0000 H   0  3  0  0  0  0  0  0  0  0  0  0
   14.9599    0.0000    0.0000 Cl  0  5  0  0  0  0  0  0  0  0  0  0
   -0.4125   -3.4117    0.0000 Cl  0  5  0  0  0  0  0  0  0  0  0  0
    3.0127   -3.6867    0.0000 C   0  0  0  0  0  0  0  0  0  0  0  0
    2.2982   -3.2742    0.0000 O   0  0  0  0  0  0  0  0  0  0  0  0
    3.7272   -3.2742    0.0000 C   0  0  0  0  0  0  0  0  0  0  0  0
    6.0843   -3.4117    0.0000 O   0  0  0  0  0  0  0  0  0  0  0  0
  1  2  1  0  0  0  0
  2  3  1  0  0  0  0
  2  4  1  0  0  0  0
  4  5  1  0  0  0  0
  5  6  1  0  0  0  0
  6  7  2  0  0  0  0
  7  8  1  0  0  0  0
  8  9  2  0  0  0  0
  4  9  1  0  0  0  0
  9 10  1  0  0  0  0
 10 11  2  0  0  0  0
 10 12  1  0  0  0  0
  1 12  1  0  0  0  0
 12 13  1  0  0  0  0
 12 14  1  0  0  0  0
 14 15  2  0  0  0  0
 14 16  1  0  0  0  0
 16 17  1  0  0  0  0
 17 18  2  0  0  0  0
 17 19  1  0  0  0  0
  1 19  1  0  0  0  0
 19 20  1  0  0  0  0
 20 21  1  0  0  0  0
 20 22  1  0  0  0  0
 16 23  2  0  0  0  0
 23 24  1  0  0  0  0
 23 25  1  0  0  0  0
  8 26  1  0  0  0  0
  7 27  1  0  0  0  0
 27 28  2  0  0  0  0
 28 29  1  0  0  0  0
 29 30  2  0  0  0  0
  6 30  1  0  0  0  0
 27 31  1  0  0  0  0
  5 32  1  0  0  0  0
 33 34  1  0  0  0  0
 34 35  1  0  0  0  0
 34 36  1  0  0  0  0
 36 37  1  0  0  0  0
 37 38  1  0  0  0  0
 38 39  2  0  0  0  0
 39 40  1  0  0  0  0
 40 41  2  0  0  0  0
 36 41  1  0  0  0  0
 41 42  1  0  0  0  0
 42 43  2  0  0  0  0
 42 44  1  0  0  0  0
 33 44  1  0  0  0  0
 44 45  1  0  0  0  0
 44 46  1  0  0  0  0
 46 47  2  0  0  0  0
 46 48  1  0  0  0  0
 48 49  1  0  0  0  0
 49 50  2  0  0  0  0
 49 51  1  0  0  0  0
 33 51  1  0  0  0  0
 51 52  1  0  0  0  0
 52 53  1  0  0  0  0
 52 54  1  0  0  0  0
 48 55  2  0  0  0  0
 55 56  1  0  0  0  0
 55 57  1  0  0  0  0
 40 58  1  0  0  0  0
 39 59  1  0  0  0  0
 59 60  2  0  0  0  0
 60 61  1  0  0  0  0
 61 62  2  0  0  0  0
 38 62  1  0  0  0  0
 59 63  1  0  0  0  0
 37 64  1  0  0  0  0
 69 70  1  0  0  0  0
 69 71  1  0  0  0  0
M  CHG  4  65   1  66   1  67  -1  68  -1
M  END
>  <Name>
Doxycycline hyclate

>  <CAS>
24390-14-5

>  <Formula>
C22H24N2O8.HCl.1/2C2H6O.1/2H2O

>  <MolWt>
512.90 

>  <Bioactivity>
Doxycycline is a synthetic tetracycline derivative with similar antimicrobial activity.


>  <Pathways>
Microbiology & Virology

>  <Target>
Antibiotic

>  <Receptor>
30S ribosomal protein, 16S ribosomal protein

>  <Reference>
1. Preissner S, et al. Nucleic Acids Res. 2010 Jan;38(Database issue):D237-43. 

$$$$
56-85-9
  Mrv1561503291623562D          

 10  9  0  0  1  0            999 V2000
    4.6184    1.8414    0.0000 C   0  0  1  0  0  0  0  0  0  0  0  0
    3.9039    1.4289    0.0000 C   0  0  0  0  0  0  0  0  0  0  0  0
    3.1895    1.8414    0.0000 C   0  0  0  0  0  0  0  0  0  0  0  0
    2.4750    1.4289    0.0000 C   0  0  0  0  0  0  0  0  0  0  0  0
    1.7605    1.8414    0.0000 N   0  0  0  0  0  0  0  0  0  0  0  0
    2.4750    0.6039    0.0000 O   0  0  0  0  0  0  0  0  0  0  0  0
    5.3329    1.4289    0.0000 C   0  0  0  0  0  0  0  0  0  0  0  0
    6.0474    1.8414    0.0000 O   0  0  0  0  0  0  0  0  0  0  0  0
    5.3329    0.6039    0.0000 O   0  0  0  0  0  0  0  0  0  0  0  0
    4.6184    2.6664    0.0000 N   0  0  0  0  0  0  0  0  0  0  0  0
  1  2  1  0  0  0  0
  2  3  1  0  0  0  0
  3  4  1  0  0  0  0
  4  5  1  0  0  0  0
  4  6  2  0  0  0  0
  1  7  1  0  0  0  0
  7  8  1  0  0  0  0
  7  9  2  0  0  0  0
  1 10  1  6  0  0  0
M  END
>  <Name>
L-Glutamine

>  <CAS>
56-85-9

>  <Formula>
C5H10N2O3

>  <MolWt>
146.14 

>  <Bioactivity>
L-glutamine is a non-essential amino acid present abundantly throughout the body and is involved in many metabolic processes. It is synthesized from GLUTAMIC ACID and AMMONIA. It is the principal carrier of NITROGEN in the body and is an important energy source for many cells.


>  <Pathways>
Amino Acids & Building Blocks

>  <Target>
CTP synthase antagonist

>  <Receptor>
CTP synthase 1

>  <Reference>
1. Mong JA, Blutstein T. Neuroscience. 2006; 138(3):967-75. 

$$$$
62-44-2
  Mrv1561503291623562D          

 13 13  0  0  0  0            999 V2000
    1.4289    0.8250    0.0000 C   0  0  0  0  0  0  0  0  0  0  0  0
    1.4289    0.0000    0.0000 C   0  0  0  0  0  0  0  0  0  0  0  0
    0.7145   -0.4125    0.0000 C   0  0  0  0  0  0  0  0  0  0  0  0
   -0.0000    0.0000    0.0000 C   0  0  0  0  0  0  0  0  0  0  0  0
   -0.0000    0.8250    0.0000 C   0  0  0  0  0  0  0  0  0  0  0  0
    0.7145    1.2375    0.0000 C   0  0  0  0  0  0  0  0  0  0  0  0
    0.7145    2.0625    0.0000 N   0  0  0  0  0  0  0  0  0  0  0  0
    0.0000    2.4750    0.0000 C   0  0  0  0  0  0  0  0  0  0  0  0
    0.0000    3.3000    0.0000 C   0  0  0  0  0  0  0  0  0  0  0  0
   -0.7145    2.0625    0.0000 O   0  0  0  0  0  0  0  0  0  0  0  0
    0.7145   -1.2375    0.0000 O   0  0  0  0  0  0  0  0  0  0  0  0
   -0.0000   -1.6500    0.0000 C   0  0  0  0  0  0  0  0  0  0  0  0
   -0.0000   -2.4750    0.0000 C   0  0  0  0  0  0  0  0  0  0  0  0
  1  2  2  0  0  0  0
  2  3  1  0  0  0  0
  3  4  2  0  0  0  0
  4  5  1  0  0  0  0
  5  6  2  0  0  0  0
  1  6  1  0  0  0  0
  6  7  1  0  0  0  0
  7  8  1  0  0  0  0
  8  9  1  0  0  0  0
  8 10  2  0  0  0  0
  3 11  1  0  0  0  0
 11 12  1  0  0  0  0
 12 13  1  0  0  0  0
M  END
>  <Name>
Phenacetin

>  <CAS>
62-44-2

>  <Formula>
C10H13NO2

>  <MolWt>
179.22 

>  <Bioactivity>
Phenacetin is a non-opioid analgesic without anti-inflammatory properties. Its analgesic effects are due to its actions on the sensory tracts of the spinal cord. In addition, phenacetin has a depressant action on the heart, where it acts as a negative inotrope. Phenacetin is an antipyretic, acting on the brain to decrease the temperature set point. Phenacetin is also used to treat rheumatoid arthritis (subacute type) and intercostal neuralgia.

>  <Pathways>
Neuroscience

>  <Target>
COX inhibitor

>  <Receptor>
COX1

>  <Reference>
1. Brix AE. Toxicol Pathol. 2002 Nov-Dec;30(6):672-4.

$$$$
107-95-9
  Mrv1561503291623562D          

  6  5  0  0  0  0            999 V2000
    1.2375   -0.7145    0.0000 C   0  0  0  0  0  0  0  0  0  0  0  0
    2.0625   -0.7145    0.0000 C   0  0  0  0  0  0  0  0  0  0  0  0
    2.4750   -1.4289    0.0000 O   0  0  0  0  0  0  0  0  0  0  0  0
    2.4750   -0.0000    0.0000 O   0  0  0  0  0  0  0  0  0  0  0  0
    0.8250    0.0000    0.0000 C   0  0  0  0  0  0  0  0  0  0  0  0
    0.0000    0.0000    0.0000 N   0  0  0  0  0  0  0  0  0  0  0  0
  1  2  1  0  0  0  0
  2  3  1  0  0  0  0
  2  4  2  0  0  0  0
  1  5  1  0  0  0  0
  5  6  1  0  0  0  0
M  END
>  <Name>
beta-Alanine

>  <CAS>
107-95-9

>  <Formula>
C3H7NO2

>  <MolWt>
89.09 

>  <Bioactivity>
An amino acid formed in vivo by the degradation of dihydrouracil and carnosine. Since neuronal uptake and neuronal receptor sensitivity to beta-alanine have been demonstrated, the compound may be a false transmitter replacing GAMMA-AMINOBUTYRIC ACID. A rare genetic disorder, hyper-beta-alaninemia, has been reported.


>  <Pathways>
Amino Acids & Building Blocks

>  <Target>
Amino Acids and Derivatives

>  <Receptor>
Amino Acids and Derivatives

>  <Reference>
1. Hill CA, et al. Amino Acids. 2007 Feb;32(2):225-33.

$$$$
T1303
  Mrv1561503291623562D          

 32 30  0  0  0  0            999 V2000
    1.4143   -0.6124    0.0000 C   0  0  0  0  0  0  0  0  0  0  0  0
    1.0018    0.1021    0.0000 C   0  0  0  0  0  0  0  0  0  0  0  0
    0.1768    0.1021    0.0000 P   0  0  0  0  0  0  0  0  0  0  0  0
   -0.2357    0.8165    0.0000 C   0  0  0  0  0  0  0  0  0  0  0  0
   -1.0607    0.8165    0.0000 C   0  0  0  0  0  0  0  0  0  0  0  0
   -0.2357   -0.6124    0.0000 C   0  0  0  0  0  0  0  0  0  0  0  0
   -1.0607   -0.6124    0.0000 C   0  0  0  0  0  0  0  0  0  0  0  0
    4.4859    2.9865    0.0000 C   0  0  0  0  0  0  0  0  0  0  0  0
    5.2004    2.5740    0.0000 C   0  0  0  0  0  0  0  0  0  0  0  0
    5.9148    2.9865    0.0000 O   0  0  0  0  0  0  0  0  0  0  0  0
    5.2004    1.7490    0.0000 O   0  0  0  0  0  0  0  0  0  0  0  0
    5.9148    1.3365    0.0000 C   0  0  0  0  0  0  0  0  0  0  0  0
    5.9148    0.5115    0.0000 C   0  0  0  0  0  0  0  0  0  0  0  0
    6.6293    0.0990    0.0000 C   0  0  0  0  0  0  0  0  0  0  0  0
    6.6293   -0.7260    0.0000 C   0  0  0  0  0  0  0  0  0  0  0  0
    5.9148   -1.1385    0.0000 C   0  0  0  0  0  0  0  0  0  0  0  0
    5.2004   -0.7260    0.0000 C   0  0  0  0  0  0  0  0  0  0  0  0
    5.2004    0.0990    0.0000 O   0  0  0  0  0  0  0  0  0  0  0  0
    4.4859   -1.1385    0.0000 S   0  5  0  0  0  0  0  0  0  0  0  0
    5.9148   -1.9635    0.0000 O   0  0  0  0  0  0  0  0  0  0  0  0
    5.2004   -2.3760    0.0000 C   0  0  0  0  0  0  0  0  0  0  0  0
    5.2004   -3.2010    0.0000 O   0  0  0  0  0  0  0  0  0  0  0  0
    4.4859   -1.9635    0.0000 C   0  0  0  0  0  0  0  0  0  0  0  0
    7.3438   -1.1385    0.0000 O   0  0  0  0  0  0  0  0  0  0  0  0
    8.0583   -0.7260    0.0000 C   0  0  0  0  0  0  0  0  0  0  0  0
    8.0583    0.0990    0.0000 O   0  0  0  0  0  0  0  0  0  0  0  0
    8.7727   -1.1385    0.0000 C   0  0  0  0  0  0  0  0  0  0  0  0
    7.3438    0.5115    0.0000 O   0  0  0  0  0  0  0  0  0  0  0  0
    7.3438    1.3365    0.0000 C   0  0  0  0  0  0  0  0  0  0  0  0
    6.6293    1.7490    0.0000 O   0  0  0  0  0  0  0  0  0  0  0  0
    8.0583    1.7490    0.0000 C   0  0  0  0  0  0  0  0  0  0  0  0
    3.7714   -1.5510    0.0000 Au  0  3  0  0  0  0  0  0  0  0  0  0
  1  2  1  0  0  0  0
  2  3  1  0  0  0  0
  3  4  1  0  0  0  0
  4  5  1  0  0  0  0
  3  6  1  0  0  0  0
  6  7  1  0  0  0  0
  8  9  1  0  0  0  0
  9 10  2  0  0  0  0
  9 11  1  0  0  0  0
 11 12  1  0  0  0  0
 12 13  1  0  0  0  0
 13 14  1  0  0  0  0
 14 15  1  0  0  0  0
 15 16  1  0  0  0  0
 16 17  1  0  0  0  0
 17 18  1  0  0  0  0
 13 18  1  0  0  0  0
 17 19  1  0  0  0  0
 16 20  1  0  0  0  0
 20 21  1  0  0  0  0
 21 22  2  0  0  0  0
 21 23  1  0  0  0  0
 15 24  1  0  0  0  0
 24 25  1  0  0  0  0
 25 26  2  0  0  0  0
 25 27  1  0  0  0  0
 14 28  1  0  0  0  0
 28 29  1  0  0  0  0
 29 30  2  0  0  0  0
 29 31  1  0  0  0  0
M  CHG  2  19  -1  32   1
M  END
>  <Name>
Auranofin

>  <CAS>
34031-32-8

>  <Formula>
C20H34AuO9PS

>  <MolWt>
678.48 

>  <Bioactivity>
An oral chrysotherapeutic agent for the treatment of rheumatoid arthritis. Its exact mechanism of action is unknown, but it is believed to act via immunological mechanisms and alteration of lysosomal enzyme activity. Its efficacy is slightly less than that of injected gold salts, but it is better tolerated, and side effects which occur are potentially less serious. 

>  <Pathways>
Immunology/Inflammation

>  <Target>
NF-?B inhibitor

>  <Receptor>
PRDX5;NF-?B kinase

>  <Reference>
1. Rigobello MP, et al. Free Radic Res. 2005 Jul; 39(7):687-95. 

$$$$
135-19-3
  Mrv1561503291623562D          

 11 12  0  0  0  0            999 V2000
    1.4289   -1.6500    0.0000 C   0  0  0  0  0  0  0  0  0  0  0  0
    0.7145   -1.2375    0.0000 C   0  0  0  0  0  0  0  0  0  0  0  0
   -0.0000   -1.6500    0.0000 O   0  0  0  0  0  0  0  0  0  0  0  0
    0.7145   -0.4125    0.0000 C   0  0  0  0  0  0  0  0  0  0  0  0
    1.4289   -0.0000    0.0000 C   0  0  0  0  0  0  0  0  0  0  0  0
    2.1434   -0.4125    0.0000 C   0  0  0  0  0  0  0  0  0  0  0  0
    2.8579   -0.0000    0.0000 C   0  0  0  0  0  0  0  0  0  0  0  0
    3.5724   -0.4125    0.0000 C   0  0  0  0  0  0  0  0  0  0  0  0
    3.5724   -1.2375    0.0000 C   0  0  0  0  0  0  0  0  0  0  0  0
    2.8579   -1.6500    0.0000 C   0  0  0  0  0  0  0  0  0  0  0  0
    2.1434   -1.2375    0.0000 C   0  0  0  0  0  0  0  0  0  0  0  0
  1  2  2  0  0  0  0
  2  3  1  0  0  0  0
  2  4  1  0  0  0  0
  4  5  2  0  0  0  0
  5  6  1  0  0  0  0
  6  7  2  0  0  0  0
  7  8  1  0  0  0  0
  8  9  2  0  0  0  0
  9 10  1  0  0  0  0
 10 11  2  0  0  0  0
  1 11  1  0  0  0  0
  6 11  1  0  0  0  0
M  END
>  <Name>
2-Naphthol

>  <CAS>
135-19-3

>  <Formula>
C10H8O

>  <MolWt>
144.17 

>  <Bioactivity>
2-Naphthol, or ?-naphthol, is a fluorescent colorless crystalline solid with the formula C10H7OH. It is an isomer of 1-naphthol, differing by the location of the hydroxyl group on the naphthalene ring. The naphthols are naphthalene homologues of phenol, but more reactive. Both isomers are soluble in simple alcohols, ethers, and chloroform. 2-Naphthol is a widely used intermediate for the production of dyes and other compounds.

>  <Pathways>
Others

>  <Target>
Others

>  <Receptor>
Others

>  <Reference>
1. Adão P, et al. Dalton Trans. 2015 Jan 28; 44(4):1612-26.

$$$$
T0344L
  Mrv1561503291623562D          

 29 30  0  0  0  0            999 V2000
   -1.7647   -0.2268    0.0000 C   0  0  0  0  0  0  0  0  0  0  0  0
   -1.0502    0.1857    0.0000 C   0  0  0  0  0  0  0  0  0  0  0  0
   -0.3357   -0.2268    0.0000 C   0  0  0  0  0  0  0  0  0  0  0  0
   -0.3357   -1.0518    0.0000 C   0  0  0  0  0  0  0  0  0  0  0  0
   -1.0502   -1.4643    0.0000 N   0  0  0  0  0  0  0  0  0  0  0  0
   -1.1364   -2.2848    0.0000 C   0  0  0  0  0  0  0  0  0  0  0  0
   -1.9434   -2.4563    0.0000 C   0  0  0  0  0  0  0  0  0  0  0  0
   -2.3559   -1.7419    0.0000 N   0  0  0  0  0  0  0  0  0  0  0  0
   -1.8039   -1.1288    0.0000 C   0  0  0  0  0  0  0  0  0  0  0  0
    0.3788    0.1857    0.0000 O   0  0  0  0  0  0  0  0  0  0  0  0
    1.0932   -0.2268    0.0000 C   0  0  0  0  0  0  0  0  0  0  0  0
    1.8077    0.1857    0.0000 C   0  0  0  0  0  0  0  0  0  0  0  0
    1.8077    1.0107    0.0000 C   0  0  0  0  0  0  0  0  0  0  0  0
    2.5222    1.4232    0.0000 C   0  0  0  0  0  0  0  0  0  0  0  0
    3.2366    1.0107    0.0000 C   0  0  0  0  0  0  0  0  0  0  0  0
    3.2366    0.1857    0.0000 C   0  0  0  0  0  0  0  0  0  0  0  0
    2.5222   -0.2268    0.0000 C   0  0  0  0  0  0  0  0  0  0  0  0
    2.5222   -1.0518    0.0000 Cl  0  0  0  0  0  0  0  0  0  0  0  0
    3.9511    1.4232    0.0000 Cl  0  0  0  0  0  0  0  0  0  0  0  0
   -1.0502    1.0107    0.0000 C   0  0  0  0  0  0  0  0  0  0  0  0
   -1.7647    1.4232    0.0000 C   0  0  0  0  0  0  0  0  0  0  0  0
   -2.4791    1.0107    0.0000 C   0  0  0  0  0  0  0  0  0  0  0  0
   -2.4791    0.1857    0.0000 C   0  0  0  0  0  0  0  0  0  0  0  0
   -3.1936    1.4232    0.0000 Cl  0  0  0  0  0  0  0  0  0  0  0  0
   -0.3357    1.4232    0.0000 Cl  0  0  0  0  0  0  0  0  0  0  0  0
    7.4279    0.7145    0.0000 O   0  0  0  0  0  0  0  0  0  0  0  0
    7.0154   -0.0000    0.0000 N   0  3  0  0  0  0  0  0  0  0  0  0
    7.4279   -0.7145    0.0000 O   0  0  0  0  0  0  0  0  0  0  0  0
    6.1904   -0.0000    0.0000 O   0  5  0  0  0  0  0  0  0  0  0  0
  1  2  2  0  0  0  0
  2  3  1  0  0  0  0
  3  4  1  0  0  0  0
  4  5  1  0  0  0  0
  5  6  1  0  0  0  0
  6  7  2  0  0  0  0
  7  8  1  0  0  0  0
  8  9  2  0  0  0  0
  5  9  1  0  0  0  0
  3 10  1  0  0  0  0
 10 11  1  0  0  0  0
 11 12  1  0  0  0  0
 12 13  2  0  0  0  0
 13 14  1  0  0  0  0
 14 15  2  0  0  0  0
 15 16  1  0  0  0  0
 16 17  2  0  0  0  0
 12 17  1  0  0  0  0
 17 18  1  0  0  0  0
 15 19  1  0  0  0  0
  2 20  1  0  0  0  0
 20 21  2  0  0  0  0
 21 22  1  0  0  0  0
 22 23  2  0  0  0  0
  1 23  1  0  0  0  0
 22 24  1  0  0  0  0
 20 25  1  0  0  0  0
 26 27  2  0  0  0  0
 27 28  1  0  0  0  0
 27 29  1  0  0  0  0
M  CHG  2  27   1  29  -1
M  END
>  <Name>
Miconazole nitrate

>  <CAS>
22832-87-7

>  <Formula>
C18H15Cl4N3O4

>  <MolWt>
479.15 

>  <Bioactivity>
An imidazole antifungal agent that is used topically and by intravenous infusion. 

>  <Pathways>
Microbiology & Virology

>  <Target>
Antibiotic

>  <Receptor>
Others

>  <Reference>
1. Birsan M, et al. Rev Med Chir Soc Med Nat Iasi. 2014 Jan-Mar;118(1):225-31. 

$$$$
137-88-2
  Mrv1561503291623562D          

 21 19  0  0  0  0            999 V2000
    0.4125    0.0000    0.0000 H   0  3  0  0  0  0  0  0  0  0  0  0
    4.1986   -0.0229    0.0000 C   0  0  0  0  0  0  0  0  0  0  0  0
    4.1986   -0.8479    0.0000 N   0  3  0  0  0  0  0  0  0  0  0  0
    4.9131   -1.2604    0.0000 C   0  0  0  0  0  0  0  0  0  0  0  0
    4.9131   -2.0854    0.0000 C   0  0  0  0  0  0  0  0  0  0  0  0
    4.1986   -2.4979    0.0000 C   0  0  0  0  0  0  0  0  0  0  0  0
    3.4841   -2.0854    0.0000 C   0  0  0  0  0  0  0  0  0  0  0  0
    3.4841   -1.2604    0.0000 C   0  0  0  0  0  0  0  0  0  0  0  0
    2.7696   -0.8479    0.0000 C   0  0  0  0  0  0  0  0  0  0  0  0
    4.9131    0.3896    0.0000 C   0  0  0  0  0  0  0  0  0  0  0  0
    4.9131    1.2146    0.0000 C   0  0  0  0  0  0  0  0  0  0  0  0
    5.6275    1.6271    0.0000 N   0  0  0  0  0  0  0  0  0  0  0  0
    6.3420    1.2146    0.0000 C   0  0  0  0  0  0  0  0  0  0  0  0
    6.3420    0.3896    0.0000 N   0  0  0  0  0  0  0  0  0  0  0  0
    5.6275   -0.0229    0.0000 C   0  0  0  0  0  0  0  0  0  0  0  0
    7.0565    1.6271    0.0000 C   0  0  0  0  0  0  0  0  0  0  0  0
    7.7709    1.2146    0.0000 C   0  0  0  0  0  0  0  0  0  0  0  0
    8.4854    1.6271    0.0000 C   0  0  0  0  0  0  0  0  0  0  0  0
    4.1986    1.6271    0.0000 N   0  0  0  0  0  0  0  0  0  0  0  0
   -0.4125    0.0000    0.0000 Cl  0  5  0  0  0  0  0  0  0  0  0  0
    0.0000   -4.1479    0.0000 Cl  0  5  0  0  0  0  0  0  0  0  0  0
  2  3  1  0  0  0  0
  3  4  2  0  0  0  0
  4  5  1  0  0  0  0
  5  6  2  0  0  0  0
  6  7  1  0  0  0  0
  7  8  2  0  0  0  0
  3  8  1  0  0  0  0
  8  9  1  0  0  0  0
  2 10  1  0  0  0  0
 10 11  2  0  0  0  0
 11 12  1  0  0  0  0
 12 13  2  0  0  0  0
 13 14  1  0  0  0  0
 14 15  2  0  0  0  0
 10 15  1  0  0  0  0
 13 16  1  0  0  0  0
 16 17  1  0  0  0  0
 17 18  1  0  0  0  0
 11 19  1  0  0  0  0
M  CHG  4   1   1   3   1  20  -1  21  -1
M  END
>  <Name>
Amprolium Hydrochloride

>  <CAS>
137-88-2

>  <Formula>
C14H19ClN4.HCl

>  <MolWt>
315.24 

>  <Bioactivity>
Amprolium chloride is a thiamin antagonist, which prevents carbohydrate synthesis by blocking thiamine uptake.

>  <Pathways>
Metabolism

>  <Target>
Thiamin antagonist

>  <Receptor>
thiamine

>  <Reference>
1. Hamamoto K, et al. J Vet Pharmacol Ther, 2000, 23(1), 9-14.

$$$$
1119-34-2
  Mrv1561503291623562D          

 14 11  0  0  1  0            999 V2000
    1.0717   -0.1375    0.0000 C   0  0  0  0  0  0  0  0  0  0  0  0
    1.0717    0.6875    0.0000 N   0  0  0  0  0  0  0  0  0  0  0  0
    0.3572   -0.5500    0.0000 C   0  0  0  0  0  0  0  0  0  0  0  0
   -0.3572   -0.1375    0.0000 C   0  0  0  0  0  0  0  0  0  0  0  0
   -1.0717   -0.5500    0.0000 C   0  0  0  0  0  0  0  0  0  0  0  0
   -1.7862   -0.1375    0.0000 N   0  0  0  0  0  0  0  0  0  0  0  0
   -1.7862    0.6875    0.0000 C   0  0  0  0  0  0  0  0  0  0  0  0
   -2.5006    1.1000    0.0000 N   0  0  0  0  0  0  0  0  0  0  0  0
   -1.0717    1.1000    0.0000 N   0  0  0  0  0  0  0  0  0  0  0  0
    1.7862   -0.5500    0.0000 C   0  0  0  0  0  0  0  0  0  0  0  0
    2.5006   -0.1375    0.0000 O   0  0  0  0  0  0  0  0  0  0  0  0
    1.7862   -1.3750    0.0000 O   0  0  0  0  0  0  0  0  0  0  0  0
    5.6828    0.0000    0.0000 H   0  3  0  0  0  0  0  0  0  0  0  0
    4.8578    0.0000    0.0000 Cl  0  5  0  0  0  0  0  0  0  0  0  0
  1  2  1  0  0  0  0
  1  3  1  0  0  0  0
  3  4  1  0  0  0  0
  4  5  1  0  0  0  0
  5  6  1  0  0  0  0
  6  7  2  3  0  0  0
  7  8  1  0  0  0  0
  7  9  1  0  0  0  0
  1 10  1  0  0  0  0
 10 11  1  0  0  0  0
 10 12  2  0  0  0  0
M  CHG  2  13   1  14  -1
M  END
>  <Name>
arginine monohydrochloride

>  <CAS>
1119-34-2

>  <Formula>
C6H15ClN4O2

>  <MolWt>
210.66 

>  <Bioactivity>
L-Arginine is the nitrogen donor for synthesis of nitric oxide, a potent vasodilator that is deficient during times of sickle cell crisis.

>  <Pathways>
Amino Acids & Building Blocks

>  <Target>
Amino Acids and Derivatives

>  <Receptor>
Amino Acids and Derivatives

>  <Reference>
1. Morris CR, et al. Am J Respir Crit Care Med, 2003, 168(1), 63-69. 

$$$$
14807-96-6
  Mrv1561503291623562D          

 19 12  0  0  0  0            999 V2000
    0.6600    1.1432    0.0000 Mg  0  2  0  0  0  0  0  0  0  0  0  0
    4.1957    1.1432    0.0000 Mg  0  2  0  0  0  0  0  0  0  0  0  0
    0.6600   -2.6503    0.0000 Mg  0  2  0  0  0  0  0  0  0  0  0  0
    0.2475   -1.0003    0.0000 O   0  0  0  0  0  0  0  0  0  0  0  0
   -0.1650   -0.2858    0.0000 Si  0  0  0  0  0  0  0  0  0  0  0  0
    0.2475    0.4287    0.0000 O   0  5  0  0  0  0  0  0  0  0  0  0
   -0.9900   -0.2858    0.0000 O   0  0  0  0  0  0  0  0  0  0  0  0
    3.7832   -1.0003    0.0000 O   0  0  0  0  0  0  0  0  0  0  0  0
    3.3707   -0.2858    0.0000 Si  0  0  0  0  0  0  0  0  0  0  0  0
    3.7832    0.4287    0.0000 O   0  5  0  0  0  0  0  0  0  0  0  0
    2.5457   -0.2858    0.0000 O   0  0  0  0  0  0  0  0  0  0  0  0
    0.2475   -4.7937    0.0000 O   0  0  0  0  0  0  0  0  0  0  0  0
   -0.1650   -4.0792    0.0000 Si  0  0  0  0  0  0  0  0  0  0  0  0
    0.2475   -3.3647    0.0000 O   0  5  0  0  0  0  0  0  0  0  0  0
   -0.9900   -4.0792    0.0000 O   0  5  0  0  0  0  0  0  0  0  0  0
    4.1368   -3.0789    0.0000 O   0  5  0  0  0  0  0  0  0  0  0  0
    3.7243   -3.7934    0.0000 Si  0  0  0  0  0  0  0  0  0  0  0  0
    4.1368   -4.5079    0.0000 O   0  0  0  0  0  0  0  0  0  0  0  0
    2.8993   -3.7934    0.0000 O   0  5  0  0  0  0  0  0  0  0  0  0
  4  5  2  0  0  0  0
  5  6  1  0  0  0  0
  5  7  1  0  0  0  0
  8  9  2  0  0  0  0
  9 10  1  0  0  0  0
  9 11  1  0  0  0  0
 12 13  2  0  0  0  0
 13 14  1  0  0  0  0
 13 15  1  0  0  0  0
 16 17  1  0  0  0  0
 17 18  2  0  0  0  0
 17 19  1  0  0  0  0
M  CHG  8   1   2   2   2   3   2   6  -1  10  -1  14  -1  15  -1  16  -1
M  CHG  1  19  -1
M  END
>  <Name>
Talc

>  <CAS>
14807-96-6

>  <Formula>
3MgO.4SiO2.H2O

>  <MolWt>
379.27 

>  <Bioactivity>
Talc is a mineral composed of hydrated magnesium silicate with the chemical formula H2Mg3(SiO3)4 or Mg3Si4O10(OH)2. Talc is used in many industries such as paper making, plastic, paint and coatings, rubber, food, electric cable, pharmaceuticals, cosmetics, ceramics, etc.

>  <Pathways>
Others

>  <Target>
Others

>  <Receptor>
Others

>  <Reference>
1. Ahmed L, et al. Chest. 2014 Dec; 146(6):e190-4. 

$$$$
299-28-5
  Mrv1561503291623562D          

 27 24  0  0  1  0            999 V2000
    0.0000    0.1768    0.0000 C   0  0  0  0  0  0  0  0  0  0  0  0
   -0.7145   -0.2357    0.0000 C   0  0  0  0  0  0  0  0  0  0  0  0
   -1.4289    0.1768    0.0000 C   0  0  0  0  0  0  0  0  0  0  0  0
   -2.1434   -0.2357    0.0000 O   0  5  0  0  0  0  0  0  0  0  0  0
   -1.4289    1.0018    0.0000 O   0  0  0  0  0  0  0  0  0  0  0  0
   -0.7145   -1.0607    0.0000 O   0  0  0  0  0  0  0  0  0  0  0  0
    0.7145   -0.2357    0.0000 C   0  0  0  0  0  0  0  0  0  0  0  0
    1.4289    0.1768    0.0000 C   0  0  0  0  0  0  0  0  0  0  0  0
    2.1434   -0.2357    0.0000 C   0  0  0  0  0  0  0  0  0  0  0  0
    2.8579    0.1768    0.0000 O   0  0  0  0  0  0  0  0  0  0  0  0
    1.4289    1.0018    0.0000 O   0  0  0  0  0  0  0  0  0  0  0  0
    0.7145   -1.0607    0.0000 O   0  0  0  0  0  0  0  0  0  0  0  0
    0.0000    1.0018    0.0000 O   0  0  0  0  0  0  0  0  0  0  0  0
    6.5261   -0.2856    0.0000 C   0  0  0  0  0  0  0  0  0  0  0  0
    5.8116    0.1269    0.0000 C   0  0  0  0  0  0  0  0  0  0  0  0
    5.0972   -0.2856    0.0000 O   0  5  0  0  0  0  0  0  0  0  0  0
    5.8116    0.9519    0.0000 O   0  0  0  0  0  0  0  0  0  0  0  0
    7.2406    0.1269    0.0000 C   0  0  0  0  0  0  0  0  0  0  0  0
    7.9551   -0.2856    0.0000 C   0  0  0  0  0  0  0  0  0  0  0  0
    8.6695    0.1269    0.0000 C   0  0  0  0  0  0  0  0  0  0  0  0
    9.3840   -0.2856    0.0000 C   0  0  0  0  0  0  0  0  0  0  0  0
   10.0985    0.1269    0.0000 O   0  0  0  0  0  0  0  0  0  0  0  0
    8.6695    0.9519    0.0000 O   0  0  0  0  0  0  0  0  0  0  0  0
    7.9551   -1.1106    0.0000 O   0  0  0  0  0  0  0  0  0  0  0  0
    7.2406    0.9519    0.0000 O   0  0  0  0  0  0  0  0  0  0  0  0
    6.5261   -1.1106    0.0000 O   0  0  0  0  0  0  0  0  0  0  0  0
   -2.8579   -0.6482    0.0000 Ca  0  2  0  0  0  0  0  0  0  0  0  0
  1  2  1  0  0  0  0
  2  3  1  0  0  0  0
  3  4  1  0  0  0  0
  3  5  2  0  0  0  0
  2  6  1  0  0  0  0
  1  7  1  0  0  0  0
  7  8  1  0  0  0  0
  8  9  1  0  0  0  0
  9 10  1  0  0  0  0
  8 11  1  0  0  0  0
  7 12  1  0  0  0  0
  1 13  1  0  0  0  0
 14 15  1  0  0  0  0
 15 16  1  0  0  0  0
 15 17  2  0  0  0  0
 14 18  1  0  0  0  0
 18 19  1  0  0  0  0
 19 20  1  0  0  0  0
 20 21  1  0  0  0  0
 21 22  1  0  0  0  0
 20 23  1  0  0  0  0
 19 24  1  0  0  0  0
 18 25  1  0  0  0  0
 14 26  1  0  0  0  0
M  CHG  3   4  -1  16  -1  27   2
M  END
>  <Name>
Calcium gluconate

>  <CAS>
299-28-5

>  <Formula>
C14H26CaO16

>  <MolWt>
430.37 

>  <Bioactivity>
Calcium gluconate is a mineral supplement. It is manufactured by the neutralization of gluconic acid with lime or calcium carbonate. 

>  <Pathways>
Others

>  <Target>
Others

>  <Receptor>
Others

>  <Reference>
1. Drop LJ, Cullen DJ. Br J Anaesth. 1980 May;52(5):501-5. 

$$$$
50-01-1
  Mrv1561503291623562D          

  6  3  0  0  0  0            999 V2000
    0.4125    0.0000    0.0000 H   0  3  0  0  0  0  0  0  0  0  0  0
    3.5946   -0.0000    0.0000 C   0  0  0  0  0  0  0  0  0  0  0  0
    4.0071    0.7145    0.0000 N   0  0  0  0  0  0  0  0  0  0  0  0
    4.0071   -0.7145    0.0000 N   0  0  0  0  0  0  0  0  0  0  0  0
    2.7696   -0.0000    0.0000 N   0  0  0  0  0  0  0  0  0  0  0  0
   -0.4125    0.0000    0.0000 Cl  0  5  0  0  0  0  0  0  0  0  0  0
  2  3  2  0  0  0  0
  2  4  1  0  0  0  0
  2  5  1  0  0  0  0
M  CHG  2   1   1   6  -1
M  END
>  <Name>
Guanidine HCl

>  <CAS>
50-01-1

>  <Formula>
CH6ClN3

>  <MolWt>
95.53 

>  <Bioactivity>
A strong organic base existing primarily as guanidium ions at physiological pH. It is found in the urine as a normal product of protein metabolism. It is also used in laboratory research as a protein denaturant. (From Martindale, the Extra Pharmacopoeia, 30th ed and Merck Index, 12th ed) It is also used in the treatment of myasthenia and as a fluorescent probe in HPLC. 

>  <Pathways>
Others

>  <Target>
Others

>  <Receptor>
Arginase, Argininosuccinate synthase,  Lysozyme, Ribonuclease pancreatic

>  <Reference>
1. Pace CN. Methods Enzymol, 1986, 131, 266-280.


$$$$
T0669
  Mrv1561503291623562D          

 13 12  0  0  0  0            999 V2000
    0.6549    0.3094    0.0000 C   0  0  0  0  0  0  0  0  0  0  0  0
   -0.0595   -0.1031    0.0000 C   0  0  0  0  0  0  0  0  0  0  0  0
   -0.0595   -0.9281    0.0000 S   0  0  0  0  0  0  0  0  0  0  0  0
   -0.0595   -1.7531    0.0000 N   0  5  0  0  0  0  0  0  0  0  0  0
    0.6549   -2.1656    0.0000 Cl  0  0  0  0  0  0  0  0  0  0  0  0
    0.7655   -0.9281    0.0000 O   0  0  0  0  0  0  0  0  0  0  0  0
   -0.8845   -0.9281    0.0000 O   0  0  0  0  0  0  0  0  0  0  0  0
   -0.7740    0.3094    0.0000 C   0  0  0  0  0  0  0  0  0  0  0  0
   -0.7740    1.1344    0.0000 C   0  0  0  0  0  0  0  0  0  0  0  0
   -0.0595    1.5469    0.0000 C   0  0  0  0  0  0  0  0  0  0  0  0
    0.6549    1.1344    0.0000 C   0  0  0  0  0  0  0  0  0  0  0  0
   -0.0595    2.3719    0.0000 C   0  0  0  0  0  0  0  0  0  0  0  0
    3.1226    0.0000    0.0000 Na  0  3  0  0  0  0  0  0  0  0  0  0
  1  2  2  0  0  0  0
  2  3  1  0  0  0  0
  3  4  1  0  0  0  0
  4  5  1  0  0  0  0
  3  6  2  0  0  0  0
  3  7  2  0  0  0  0
  2  8  1  0  0  0  0
  8  9  2  0  0  0  0
  9 10  1  0  0  0  0
 10 11  2  0  0  0  0
  1 11  1  0  0  0  0
 10 12  1  0  0  0  0
M  CHG  2   4  -1  13   1
M  END
>  <Name>
Chloramine-T

>  <CAS>
127-65-1

>  <Formula>
C7H7ClNNaO2S

>  <MolWt>
227.65 

>  <Bioactivity>
Tosylchloramide or N-chloro tosylamide, sodium salt, sold as chloramine-T, is a N-chlorinated and N-deprotonated sulfonamide used as a biocide and a mild disinfectant. It is a white powder that gives unstable solutions with water. 

>  <Pathways>
Microbiology & Virology

>  <Target>
Antibiotic

>  <Receptor>
Others

>  <Reference>
1. Boran H, Altinok I. J Fish Dis. 2014 May; 37(5):431-41. 

$$$$
69-79-4
  Mrv1561503291623562D          

 23 24  0  0  0  0            999 V2000
   -0.7145   -0.4125    0.0000 C   0  0  0  0  0  0  0  0  0  0  0  0
   -1.4289    0.0000    0.0000 O   0  0  0  0  0  0  0  0  0  0  0  0
   -0.7145   -1.2375    0.0000 C   0  0  0  0  0  0  0  0  0  0  0  0
   -1.4289   -1.6500    0.0000 O   0  0  0  0  0  0  0  0  0  0  0  0
   -1.4289   -2.4750    0.0000 C   0  0  0  0  0  0  0  0  0  0  0  0
   -2.1434   -2.8875    0.0000 O   0  0  0  0  0  0  0  0  0  0  0  0
   -0.7145   -2.8875    0.0000 C   0  0  0  0  0  0  0  0  0  0  0  0
   -0.7145   -3.7125    0.0000 O   0  0  0  0  0  0  0  0  0  0  0  0
   -0.0000   -2.4750    0.0000 C   0  0  0  0  0  0  0  0  0  0  0  0
    0.7145   -2.8875    0.0000 O   0  0  0  0  0  0  0  0  0  0  0  0
   -0.0000   -1.6500    0.0000 C   0  0  0  0  0  0  0  0  0  0  0  0
    0.7145   -1.2375    0.0000 O   0  0  0  0  0  0  0  0  0  0  0  0
    0.7145   -0.4125    0.0000 C   0  0  0  0  0  0  0  0  0  0  0  0
   -0.0000    0.0000    0.0000 O   0  0  0  0  0  0  0  0  0  0  0  0
   -0.0000    0.8250    0.0000 C   0  0  0  0  0  0  0  0  0  0  0  0
    0.7145    1.2375    0.0000 C   0  0  0  0  0  0  0  0  0  0  0  0
    0.7145    2.0625    0.0000 O   0  0  0  0  0  0  0  0  0  0  0  0
    1.4289    0.8250    0.0000 C   0  0  0  0  0  0  0  0  0  0  0  0
    2.1434    1.2375    0.0000 O   0  0  0  0  0  0  0  0  0  0  0  0
    1.4289    0.0000    0.0000 C   0  0  0  0  0  0  0  0  0  0  0  0
    2.1434   -0.4125    0.0000 O   0  0  0  0  0  0  0  0  0  0  0  0
   -0.7145    1.2375    0.0000 C   0  0  0  0  0  0  0  0  0  0  0  0
   -0.7145    2.0625    0.0000 O   0  0  0  0  0  0  0  0  0  0  0  0
  1  2  1  0  0  0  0
  1  3  1  0  0  0  0
  3  4  1  0  0  0  0
  4  5  1  0  0  0  0
  5  6  1  0  0  0  0
  5  7  1  0  0  0  0
  7  8  1  0  0  0  0
  7  9  1  0  0  0  0
  9 10  1  0  0  0  0
  9 11  1  0  0  0  0
  3 11  1  0  0  0  0
 11 12  1  0  0  0  0
 12 13  1  0  0  0  0
 13 14  1  0  0  0  0
 14 15  1  0  0  0  0
 15 16  1  0  0  0  0
 16 17  1  0  0  0  0
 16 18  1  0  0  0  0
 18 19  1  0  0  0  0
 18 20  1  0  0  0  0
 13 20  1  0  0  0  0
 20 21  1  0  0  0  0
 15 22  1  0  0  0  0
 22 23  1  0  0  0  0
M  END
>  <Name>
Maltose

>  <CAS>
69-79-4

>  <Formula>
C12H22O11

>  <MolWt>
342.30 

>  <Bioactivity>
A dextrodisaccharide from malt and starch. It is used as a sweetening agent and fermentable intermediate in brewing.

>  <Pathways>
Others

>  <Target>
Others

>  <Receptor>
Others

>  <Reference>
N/A

$$$$
585-88-6
  Mrv1561503291623562D          

 23 23  0  0  0  0            999 V2000
   -4.2868   -2.4750    0.0000 C   0  0  0  0  0  0  0  0  0  0  0  0
   -3.5724   -2.8875    0.0000 C   0  0  0  0  0  0  0  0  0  0  0  0
   -2.8579   -2.4750    0.0000 O   0  0  0  0  0  0  0  0  0  0  0  0
   -2.1434   -2.8875    0.0000 C   0  0  0  0  0  0  0  0  0  0  0  0
   -1.4289   -2.4750    0.0000 O   0  0  0  0  0  0  0  0  0  0  0  0
   -1.4289   -1.6500    0.0000 C   0  0  0  0  0  0  0  0  0  0  0  0
   -2.1434   -1.2375    0.0000 C   0  0  0  0  0  0  0  0  0  0  0  0
   -2.1434   -0.4125    0.0000 C   0  0  0  0  0  0  0  0  0  0  0  0
   -2.8579    0.0000    0.0000 C   0  0  0  0  0  0  0  0  0  0  0  0
   -2.8579    0.8250    0.0000 O   0  0  0  0  0  0  0  0  0  0  0  0
   -1.4289    0.0000    0.0000 O   0  0  0  0  0  0  0  0  0  0  0  0
   -2.8579   -1.6500    0.0000 O   0  0  0  0  0  0  0  0  0  0  0  0
   -0.7145   -1.2375    0.0000 C   0  0  0  0  0  0  0  0  0  0  0  0
   -0.7145   -0.4125    0.0000 C   0  0  0  0  0  0  0  0  0  0  0  0
   -0.0000    0.0000    0.0000 O   0  0  0  0  0  0  0  0  0  0  0  0
   -0.0000   -1.6500    0.0000 O   0  0  0  0  0  0  0  0  0  0  0  0
   -2.1434   -3.7125    0.0000 C   0  0  0  0  0  0  0  0  0  0  0  0
   -2.8579   -4.1250    0.0000 C   0  0  0  0  0  0  0  0  0  0  0  0
   -2.8579   -4.9500    0.0000 O   0  0  0  0  0  0  0  0  0  0  0  0
   -3.5724   -3.7125    0.0000 C   0  0  0  0  0  0  0  0  0  0  0  0
   -4.2868   -4.1250    0.0000 O   0  0  0  0  0  0  0  0  0  0  0  0
   -1.4289   -4.1250    0.0000 O   0  0  0  0  0  0  0  0  0  0  0  0
   -4.2868   -1.6500    0.0000 O   0  0  0  0  0  0  0  0  0  0  0  0
  1  2  1  0  0  0  0
  2  3  1  0  0  0  0
  3  4  1  0  0  0  0
  4  5  1  0  0  0  0
  5  6  1  0  0  0  0
  6  7  1  0  0  0  0
  7  8  1  0  0  0  0
  8  9  1  0  0  0  0
  9 10  1  0  0  0  0
  8 11  1  0  0  0  0
  7 12  1  0  0  0  0
  6 13  1  0  0  0  0
 13 14  1  0  0  0  0
 14 15  1  0  0  0  0
 13 16  1  0  0  0  0
  4 17  1  0  0  0  0
 17 18  1  0  0  0  0
 18 19  1  0  0  0  0
 18 20  1  0  0  0  0
  2 20  1  0  0  0  0
 20 21  1  0  0  0  0
 17 22  1  0  0  0  0
  1 23  1  0  0  0  0
M  END
>  <Name>
Maltitol

>  <CAS>
585-88-6

>  <Formula>
C12H24O11

>  <MolWt>
344.31 

>  <Bioactivity>
Maltitol is a sugar alcohol (a polyol) used as a sugar substitute. It has 75–90% of the sweetness of sucrose (table sugar) and nearly identical properties, except for browning. 

>  <Pathways>
Others

>  <Target>
Others

>  <Receptor>
Others

>  <Reference>
1. Urushima H, et al. J Med Food. 2015 Oct;18(10):1081-7. 

$$$$
63-42-3
  Mrv1561503291623562D          

 23 24  0  0  0  0            999 V2000
   -0.7145   -0.4125    0.0000 C   0  0  0  0  0  0  0  0  0  0  0  0
   -1.4289    0.0000    0.0000 O   0  0  0  0  0  0  0  0  0  0  0  0
   -0.7145   -1.2375    0.0000 C   0  0  0  0  0  0  0  0  0  0  0  0
   -1.4289   -1.6500    0.0000 O   0  0  0  0  0  0  0  0  0  0  0  0
   -1.4289   -2.4750    0.0000 C   0  0  0  0  0  0  0  0  0  0  0  0
   -2.1434   -2.8875    0.0000 O   0  0  0  0  0  0  0  0  0  0  0  0
   -0.7145   -2.8875    0.0000 C   0  0  0  0  0  0  0  0  0  0  0  0
   -0.7145   -3.7125    0.0000 O   0  0  0  0  0  0  0  0  0  0  0  0
   -0.0000   -2.4750    0.0000 C   0  0  0  0  0  0  0  0  0  0  0  0
    0.7145   -2.8875    0.0000 O   0  0  0  0  0  0  0  0  0  0  0  0
   -0.0000   -1.6500    0.0000 C   0  0  0  0  0  0  0  0  0  0  0  0
    0.7145   -1.2375    0.0000 O   0  0  0  0  0  0  0  0  0  0  0  0
    0.7145   -0.4125    0.0000 C   0  0  0  0  0  0  0  0  0  0  0  0
   -0.0000    0.0000    0.0000 O   0  0  0  0  0  0  0  0  0  0  0  0
   -0.0000    0.8250    0.0000 C   0  0  0  0  0  0  0  0  0  0  0  0
    0.7145    1.2375    0.0000 C   0  0  0  0  0  0  0  0  0  0  0  0
    0.7145    2.0625    0.0000 O   0  0  0  0  0  0  0  0  0  0  0  0
    1.4289    0.8250    0.0000 C   0  0  0  0  0  0  0  0  0  0  0  0
    2.1434    1.2375    0.0000 O   0  0  0  0  0  0  0  0  0  0  0  0
    1.4289    0.0000    0.0000 C   0  0  0  0  0  0  0  0  0  0  0  0
    2.1434   -0.4125    0.0000 O   0  0  0  0  0  0  0  0  0  0  0  0
   -0.7145    1.2375    0.0000 C   0  0  0  0  0  0  0  0  0  0  0  0
   -0.7145    2.0625    0.0000 O   0  0  0  0  0  0  0  0  0  0  0  0
  1  2  1  0  0  0  0
  1  3  1  0  0  0  0
  3  4  1  0  0  0  0
  4  5  1  0  0  0  0
  5  6  1  0  0  0  0
  5  7  1  0  0  0  0
  7  8  1  0  0  0  0
  7  9  1  0  0  0  0
  9 10  1  0  0  0  0
  9 11  1  0  0  0  0
  3 11  1  0  0  0  0
 11 12  1  0  0  0  0
 12 13  1  0  0  0  0
 13 14  1  0  0  0  0
 14 15  1  0  0  0  0
 15 16  1  0  0  0  0
 16 17  1  0  0  0  0
 16 18  1  0  0  0  0
 18 19  1  0  0  0  0
 18 20  1  0  0  0  0
 13 20  1  0  0  0  0
 20 21  1  0  0  0  0
 15 22  1  0  0  0  0
 22 23  1  0  0  0  0
M  END
>  <Name>
Lactose

>  <CAS>
63-42-3

>  <Formula>
C12H22O11

>  <MolWt>
342.30 

>  <Bioactivity>
Lactose is a disaccharide sugar derived from galactose and glucose that is found in milk.

>  <Pathways>
Others

>  <Target>
Others

>  <Receptor>
Others

>  <Reference>
1. Wang P, et al. Food Chem. 2015 Apr 15;173:468-74.

$$$$
69-72-7
  Mrv1561503291623562D          

 10 10  0  0  0  0            999 V2000
    1.4289    0.8250    0.0000 C   0  0  0  0  0  0  0  0  0  0  0  0
    1.4289    0.0000    0.0000 C   0  0  0  0  0  0  0  0  0  0  0  0
    0.7145   -0.4125    0.0000 C   0  0  0  0  0  0  0  0  0  0  0  0
   -0.0000    0.0000    0.0000 C   0  0  0  0  0  0  0  0  0  0  0  0
   -0.0000    0.8250    0.0000 C   0  0  0  0  0  0  0  0  0  0  0  0
    0.7145    1.2375    0.0000 C   0  0  0  0  0  0  0  0  0  0  0  0
    0.7145    2.0625    0.0000 C   0  0  0  0  0  0  0  0  0  0  0  0
    0.0000    2.4750    0.0000 O   0  0  0  0  0  0  0  0  0  0  0  0
    1.4289    2.4750    0.0000 O   0  0  0  0  0  0  0  0  0  0  0  0
   -0.7145    1.2375    0.0000 O   0  0  0  0  0  0  0  0  0  0  0  0
  1  2  2  0  0  0  0
  2  3  1  0  0  0  0
  3  4  2  0  0  0  0
  4  5  1  0  0  0  0
  5  6  2  0  0  0  0
  1  6  1  0  0  0  0
  6  7  1  0  0  0  0
  7  8  1  0  0  0  0
  7  9  2  0  0  0  0
  5 10  1  0  0  0  0
M  END
>  <Name>
Salicylic acid

>  <CAS>
69-72-7

>  <Formula>
C7H6O3

>  <MolWt>
138.12 

>  <Bioactivity>
A compound obtained from the bark of the white willow and wintergreen leaves. It has bacteriostatic, fungicidal, and keratolytic actions.

>  <Pathways>
Neuroscience

>  <Target>
COX inhibitor

>  <Receptor>
Prostaglandin G/H synthase

>  <Reference>
1. Moon C, et al. Neurosci Lett. 2004 Feb 12; 356(2):123-6. 

$$$$
69-65-8
  Mrv1561503291623562D          

 12 11  0  0  0  0            999 V2000
    1.7605    1.8414    0.0000 C   0  0  0  0  0  0  0  0  0  0  0  0
    2.4750    1.4289    0.0000 C   0  0  0  0  0  0  0  0  0  0  0  0
    3.1895    1.8414    0.0000 C   0  0  0  0  0  0  0  0  0  0  0  0
    3.9039    1.4289    0.0000 C   0  0  0  0  0  0  0  0  0  0  0  0
    4.6184    1.8414    0.0000 C   0  0  0  0  0  0  0  0  0  0  0  0
    5.3329    1.4289    0.0000 C   0  0  0  0  0  0  0  0  0  0  0  0
    6.0474    1.8414    0.0000 O   0  0  0  0  0  0  0  0  0  0  0  0
    4.6184    2.6664    0.0000 O   0  0  0  0  0  0  0  0  0  0  0  0
    3.9039    0.6039    0.0000 O   0  0  0  0  0  0  0  0  0  0  0  0
    3.1895    2.6664    0.0000 O   0  0  0  0  0  0  0  0  0  0  0  0
    2.4750    0.6039    0.0000 O   0  0  0  0  0  0  0  0  0  0  0  0
    1.0461    1.4289    0.0000 O   0  0  0  0  0  0  0  0  0  0  0  0
  1  2  1  0  0  0  0
  2  3  1  0  0  0  0
  3  4  1  0  0  0  0
  4  5  1  0  0  0  0
  5  6  1  0  0  0  0
  6  7  1  0  0  0  0
  5  8  1  0  0  0  0
  4  9  1  0  0  0  0
  3 10  1  0  0  0  0
  2 11  1  0  0  0  0
  1 12  1  0  0  0  0
M  END
>  <Name>
D-Mannitol

>  <CAS>
69-65-8

>  <Formula>
C6H14O6

>  <MolWt>
182.17 

>  <Bioactivity>
A diuretic and renal diagnostic aid related to sorbitol. It has little significant energy value as it is largely eliminated from the body before any metabolism can take place. It can be used to treat oliguria associated with kidney failure or other manifestations of inadequate renal function and has been used for determination of glomerular filtration rate. Mannitol is also commonly used as a research tool in cell biological studies, usually to control osmolarity.  

>  <Pathways>
Metabolism

>  <Target>
Dehydrogenase substrate

>  <Receptor>
MDH

>  <Reference>
1. Wang YM, van Eys J. Annu Rev Nutr. 1981; 1:437-75.

$$$$
67-43-6
  Mrv1561503291623562D          

 27 26  0  0  0  0            999 V2000
    8.5224    4.0954    0.0000 C   0  0  0  0  0  0  0  0  0  0  0  0
    7.8079    4.5079    0.0000 N   0  0  0  0  0  0  0  0  0  0  0  0
    7.0934    4.0954    0.0000 C   0  0  0  0  0  0  0  0  0  0  0  0
    6.3789    4.5079    0.0000 C   0  0  0  0  0  0  0  0  0  0  0  0
    5.6645    4.0954    0.0000 N   0  0  0  0  0  0  0  0  0  0  0  0
    4.9500    4.5079    0.0000 C   0  0  0  0  0  0  0  0  0  0  0  0
    4.9500    5.3329    0.0000 C   0  0  0  0  0  0  0  0  0  0  0  0
    5.6645    5.7454    0.0000 O   0  0  0  0  0  0  0  0  0  0  0  0
    4.2355    5.7454    0.0000 O   0  0  0  0  0  0  0  0  0  0  0  0
    5.6645    3.2704    0.0000 C   0  0  0  0  0  0  0  0  0  0  0  0
    4.9500    2.8579    0.0000 C   0  0  0  0  0  0  0  0  0  0  0  0
    4.2355    3.2704    0.0000 O   0  0  0  0  0  0  0  0  0  0  0  0
    4.9500    2.0329    0.0000 O   0  0  0  0  0  0  0  0  0  0  0  0
    7.8079    5.3329    0.0000 C   0  0  0  0  0  0  0  0  0  0  0  0
    8.5224    5.7454    0.0000 C   0  0  0  0  0  0  0  0  0  0  0  0
    8.5224    6.5704    0.0000 O   0  0  0  0  0  0  0  0  0  0  0  0
    9.2368    5.3329    0.0000 O   0  0  0  0  0  0  0  0  0  0  0  0
    9.2368    4.5079    0.0000 C   0  0  0  0  0  0  0  0  0  0  0  0
    9.9513    4.0954    0.0000 N   0  0  0  0  0  0  0  0  0  0  0  0
   10.6658    4.5079    0.0000 C   0  0  0  0  0  0  0  0  0  0  0  0
   10.6658    5.3329    0.0000 C   0  0  0  0  0  0  0  0  0  0  0  0
    9.9513    5.7454    0.0000 O   0  0  0  0  0  0  0  0  0  0  0  0
   11.3802    5.7454    0.0000 O   0  0  0  0  0  0  0  0  0  0  0  0
    9.9513    3.2704    0.0000 C   0  0  0  0  0  0  0  0  0  0  0  0
   10.6658    2.8579    0.0000 C   0  0  0  0  0  0  0  0  0  0  0  0
   11.3802    3.2704    0.0000 O   0  0  0  0  0  0  0  0  0  0  0  0
   10.6658    2.0329    0.0000 O   0  0  0  0  0  0  0  0  0  0  0  0
  1  2  1  0  0  0  0
  2  3  1  0  0  0  0
  3  4  1  0  0  0  0
  4  5  1  0  0  0  0
  5  6  1  0  0  0  0
  6  7  1  0  0  0  0
  7  8  1  0  0  0  0
  7  9  2  0  0  0  0
  5 10  1  0  0  0  0
 10 11  1  0  0  0  0
 11 12  2  0  0  0  0
 11 13  1  0  0  0  0
  2 14  1  0  0  0  0
 14 15  1  0  0  0  0
 15 16  2  0  0  0  0
 15 17  1  0  0  0  0
  1 18  1  0  0  0  0
 18 19  1  0  0  0  0
 19 20  1  0  0  0  0
 20 21  1  0  0  0  0
 21 22  1  0  0  0  0
 21 23  2  0  0  0  0
 19 24  1  0  0  0  0
 24 25  1  0  0  0  0
 25 26  2  0  0  0  0
 25 27  1  0  0  0  0
M  END
>  <Name>
Pentetic Acid

>  <CAS>
67-43-6

>  <Formula>
C14H23N3O10

>  <MolWt>
393.35 

>  <Bioactivity>
An iron chelating agent with properties like EDETIC ACID. DTPA has also been used as a chelator for other metals, such as plutonium.  

>  <Pathways>
Others

>  <Target>
Chelator

>  <Receptor>
Heavy metal ion

>  <Reference>
1. Gi M, et al. Antimicrob Agents Chemother. 2014 Dec; 58(12):7205-14. 

$$$$
7632-00-0
  Mrv1561503291623562D          

  4  2  0  0  0  0            999 V2000
    2.0625   -0.7145    0.0000 O   0  0  0  0  0  0  0  0  0  0  0  0
    1.6500   -0.0000    0.0000 N   0  0  0  0  0  0  0  0  0  0  0  0
    0.8250    0.0000    0.0000 O   0  5  0  0  0  0  0  0  0  0  0  0
    0.0000    0.0000    0.0000 Na  0  3  0  0  0  0  0  0  0  0  0  0
  1  2  2  0  0  0  0
  2  3  1  0  0  0  0
M  CHG  2   3  -1   4   1
M  END
>  <Name>
Sodium nitrite

>  <CAS>
7632-00-0

>  <Formula>
NaNO2

>  <MolWt>
69.00 

>  <Bioactivity>
Nitrous acid sodium salt. Used in many industrial processes, in meat curing, coloring, and preserving, and as a reagent in ANALYTICAL CHEMISTRY TECHNIQUES. It is used therapeutically as an antidote in cyanide poisoning. The compound is toxic and mutagenic and will react in vivo with secondary or tertiary amines thereby producing highly carcinogenic nitrosamines.  

>  <Pathways>
Others

>  <Target>
Others

>  <Receptor>
Others

>  <Reference>
1. van Dalen CJ, et al. J Biol Chem, 2000, 275(16), 11638-11644.

$$$$
T0673
  Mrv1561503291623562D          

  8  8  0  0  0  0            999 V2000
    1.4289   -0.0000    0.0000 C   0  0  0  0  0  0  0  0  0  0  0  0
    0.7145   -0.4125    0.0000 C   0  0  0  0  0  0  0  0  0  0  0  0
    0.7145   -1.2375    0.0000 O   0  0  0  0  0  0  0  0  0  0  0  0
   -0.0000   -0.0000    0.0000 C   0  0  0  0  0  0  0  0  0  0  0  0
   -0.0000    0.8250    0.0000 C   0  0  0  0  0  0  0  0  0  0  0  0
    0.7145    1.2375    0.0000 C   0  0  0  0  0  0  0  0  0  0  0  0
    1.4289    0.8250    0.0000 C   0  0  0  0  0  0  0  0  0  0  0  0
    0.7145    2.0625    0.0000 O   0  0  0  0  0  0  0  0  0  0  0  0
  1  2  2  0  0  0  0
  2  3  1  0  0  0  0
  2  4  1  0  0  0  0
  4  5  2  0  0  0  0
  5  6  1  0  0  0  0
  6  7  2  0  0  0  0
  1  7  1  0  0  0  0
  6  8  1  0  0  0  0
M  END
>  <Name>
Hydroquinone

>  <CAS>
123-31-9

>  <Formula>
C6H6O2

>  <MolWt>
110.11 

>  <Bioactivity>
Hydroquinone is a Melanin Synthesis Inhibitor. The mechanism of action of hydroquinone is as a Melanin Synthesis Inhibitor. The physiologic effect of hydroquinone is by means of Depigmenting Activity.

>  <Pathways>
Immunology/Inflammation

>  <Target>
ROS inhibitor

>  <Receptor>
Antioxidant

>  <Reference>
1. Khoshneviszadeh R, et al. Iran J Pharm Res. 2015 Spring; 14(2):473-8.

$$$$
7681-11-0
  Mrv1561503291623562D          

  2  0  0  0  0  0            999 V2000
    0.8250    0.0000    0.0000 I   0  5  0  0  0  0  0  0  0  0  0  0
    0.0000    0.0000    0.0000 K   0  3  0  0  0  0  0  0  0  0  0  0
M  CHG  2   1  -1   2   1
M  END
>  <Name>
Potassium iodide

>  <CAS>
7681-11-0

>  <Formula>
K+I-

>  <MolWt>
166.01 

>  <Bioactivity>
Potassium iodide is used to treat overactive thyroid and to protect the thyroid gland from the effects of radiation from inhaled or swallowed radioactive iodine. It may be used before and after administration of medicine containing radioactive iodine or after accidental exposure to radioactive iodine. 

>  <Pathways>
Others

>  <Target>
Others

>  <Receptor>
Tyrosine

>  <Reference>
1. Pisarev MA, Aiello LO. Acta Endocrinol (Copenh). 1976 Jun;82(2):298-305.

$$$$
T0123
  Mrv1561503291623562D          

 11 11  0  0  0  0            999 V2000
    1.4289   -0.0000    0.0000 C   0  0  0  0  0  0  0  0  0  0  0  0
    0.7145   -0.4125    0.0000 C   0  0  0  0  0  0  0  0  0  0  0  0
    0.7145   -1.2375    0.0000 S   0  0  0  0  0  0  0  0  0  0  0  0
    0.7145   -2.0625    0.0000 N   0  0  0  0  0  0  0  0  0  0  0  0
    1.5395   -1.2375    0.0000 O   0  0  0  0  0  0  0  0  0  0  0  0
   -0.1105   -1.2375    0.0000 O   0  0  0  0  0  0  0  0  0  0  0  0
   -0.0000   -0.0000    0.0000 C   0  0  0  0  0  0  0  0  0  0  0  0
   -0.0000    0.8250    0.0000 C   0  0  0  0  0  0  0  0  0  0  0  0
    0.7145    1.2375    0.0000 C   0  0  0  0  0  0  0  0  0  0  0  0
    1.4289    0.8250    0.0000 C   0  0  0  0  0  0  0  0  0  0  0  0
    0.7145    2.0625    0.0000 N   0  0  0  0  0  0  0  0  0  0  0  0
  1  2  2  0  0  0  0
  2  3  1  0  0  0  0
  3  4  1  0  0  0  0
  3  5  2  0  0  0  0
  3  6  2  0  0  0  0
  2  7  1  0  0  0  0
  7  8  2  0  0  0  0
  8  9  1  0  0  0  0
  9 10  2  0  0  0  0
  1 10  1  0  0  0  0
  9 11  1  0  0  0  0
M  END
>  <Name>
Sulfanilamide

>  <CAS>
63-74-1

>  <Formula>
C6H8N2O2S

>  <MolWt>
172.20 

>  <Bioactivity>
Sulfanilamide is a molecule containing the sulfonamide functional group attached to an aniline. 

>  <Pathways>
Microbiology & Virology

>  <Target>
Antibacterial

>  <Receptor>
Dihydropteroate synthase

>  <Reference>
1. Preissner S, et al. Nucleic Acids Res. 2010 Jan; 38(Database issue):D237-43. 

$$$$
T0834
  Mrv1561503291623562D          

 12 12  0  0  0  0            999 V2000
    1.4289   -0.0000    0.0000 C   0  0  0  0  0  0  0  0  0  0  0  0
    0.7145   -0.4125    0.0000 C   0  0  0  0  0  0  0  0  0  0  0  0
    0.7145   -1.2375    0.0000 C   0  0  0  0  0  0  0  0  0  0  0  0
    0.0000   -1.6500    0.0000 O   0  0  0  0  0  0  0  0  0  0  0  0
    1.4289   -1.6500    0.0000 O   0  0  0  0  0  0  0  0  0  0  0  0
    1.4289   -2.4750    0.0000 C   0  0  0  0  0  0  0  0  0  0  0  0
    2.1434   -2.8875    0.0000 C   0  0  0  0  0  0  0  0  0  0  0  0
   -0.0000   -0.0000    0.0000 C   0  0  0  0  0  0  0  0  0  0  0  0
   -0.0000    0.8250    0.0000 C   0  0  0  0  0  0  0  0  0  0  0  0
    0.7145    1.2375    0.0000 C   0  0  0  0  0  0  0  0  0  0  0  0
    1.4289    0.8250    0.0000 C   0  0  0  0  0  0  0  0  0  0  0  0
    0.7145    2.0625    0.0000 O   0  0  0  0  0  0  0  0  0  0  0  0
  1  2  2  0  0  0  0
  2  3  1  0  0  0  0
  3  4  2  0  0  0  0
  3  5  1  0  0  0  0
  5  6  1  0  0  0  0
  6  7  1  0  0  0  0
  2  8  1  0  0  0  0
  8  9  2  0  0  0  0
  9 10  1  0  0  0  0
 10 11  2  0  0  0  0
  1 11  1  0  0  0  0
 10 12  1  0  0  0  0
M  END
>  <Name>
Ethylparaben

>  <CAS>
120-47-8

>  <Formula>
C9H10O3

>  <MolWt>
166.17 

>  <Bioactivity>
Ethylparaben is a Standardized Chemical Allergen. The physiologic effect of ethylparaben is by means of Increased Histamine Release and Cell-mediated Immunity. The chemical classification of ethylparaben is Allergens.


>  <Pathways>
Microbiology & Virology

>  <Target>
Antifungal

>  <Receptor>
Others

>  <Reference>
1. Jianmei C, et al. Microbiol Res. 2015 Mar; 172:48-56. 

$$$$
150-38-9
  Mrv1561503291623562D          

 26 19  0  0  0  0            999 V2000
   -0.2843   -0.1443    0.0000 C   0  0  0  0  0  0  0  0  0  0  0  0
   -1.0769    0.0846    0.0000 N   0  0  0  0  0  0  0  0  0  0  0  0
   -1.6714   -0.4875    0.0000 C   0  0  0  0  0  0  0  0  0  0  0  0
   -1.4733   -1.2883    0.0000 C   0  0  0  0  0  0  0  0  0  0  0  0
   -2.0677   -1.8604    0.0000 O   0  0  0  0  0  0  0  0  0  0  0  0
   -0.6806   -1.5171    0.0000 O   0  5  0  0  0  0  0  0  0  0  0  0
   -1.2751    0.8854    0.0000 C   0  0  0  0  0  0  0  0  0  0  0  0
   -2.0677    1.1142    0.0000 C   0  0  0  0  0  0  0  0  0  0  0  0
   -2.2659    1.9151    0.0000 O   0  5  0  0  0  0  0  0  0  0  0  0
   -2.6622    0.5422    0.0000 O   0  0  0  0  0  0  0  0  0  0  0  0
    0.3102    0.4278    0.0000 C   0  0  0  0  0  0  0  0  0  0  0  0
    1.1028    0.1990    0.0000 N   0  0  0  0  0  0  0  0  0  0  0  0
    1.3010   -0.6019    0.0000 C   0  0  0  0  0  0  0  0  0  0  0  0
    0.7065   -1.1739    0.0000 C   0  0  0  0  0  0  0  0  0  0  0  0
    0.9046   -1.9748    0.0000 O   0  0  0  0  0  0  0  0  0  0  0  0
   -0.0862   -0.9451    0.0000 O   0  0  0  0  0  0  0  0  0  0  0  0
    1.6973    0.7710    0.0000 C   0  0  0  0  0  0  0  0  0  0  0  0
    2.4899    0.5422    0.0000 C   0  0  0  0  0  0  0  0  0  0  0  0
    3.0844    1.1142    0.0000 O   0  5  0  0  0  0  0  0  0  0  0  0
    2.6881   -0.2587    0.0000 O   0  0  0  0  0  0  0  0  0  0  0  0
    0.1120   -1.7459    0.0000 Na  0  3  0  0  0  0  0  0  0  0  0  0
    6.0360    0.0000    0.0000 O   0  0  0  0  0  0  0  0  0  0  0  0
    0.0000   -3.6248    0.0000 O   0  0  0  0  0  0  0  0  0  0  0  0
    2.3571   -3.6248    0.0000 O   0  0  0  0  0  0  0  0  0  0  0  0
   -2.4641    2.7159    0.0000 Na  0  3  0  0  0  0  0  0  0  0  0  0
    3.6789    1.6863    0.0000 Na  0  3  0  0  0  0  0  0  0  0  0  0
  1  2  1  0  0  0  0
  2  3  1  0  0  0  0
  3  4  1  0  0  0  0
  4  5  2  0  0  0  0
  4  6  1  0  0  0  0
  2  7  1  0  0  0  0
  7  8  1  0  0  0  0
  8  9  1  0  0  0  0
  8 10  2  0  0  0  0
  1 11  1  0  0  0  0
 11 12  1  0  0  0  0
 12 13  1  0  0  0  0
 13 14  1  0  0  0  0
 14 15  1  0  0  0  0
 14 16  2  0  0  0  0
 12 17  1  0  0  0  0
 17 18  1  0  0  0  0
 18 19  1  0  0  0  0
 18 20  2  0  0  0  0
M  CHG  6   6  -1   9  -1  19  -1  21   1  25   1  26   1
M  END
>  <Name>
Ethylenediaminetetraacetic acid trisodium salt solution

>  <CAS>
150-38-9

>  <Formula>
C10H13N2Na3O8.2H2O

>  <MolWt>
394.22 

>  <Bioactivity>
Edetate Trisodium is used as a chelator.

>  <Pathways>
Others

>  <Target>
Chelator

>  <Receptor>
metal ion

>  <Reference>
1. Stowers JM, et al. Lancet. 1967 Jan 21;1(7482):124-7.

$$$$
T0775
  Mrv1561503291623562D          

 11 12  0  0  0  0            999 V2000
   -0.0000    0.0000    0.0000 C   0  0  0  0  0  0  0  0  0  0  0  0
   -0.7145   -0.4125    0.0000 C   0  0  0  0  0  0  0  0  0  0  0  0
   -0.7145   -1.2375    0.0000 C   0  0  0  0  0  0  0  0  0  0  0  0
   -0.0000   -1.6500    0.0000 C   0  0  0  0  0  0  0  0  0  0  0  0
    0.7145   -1.2375    0.0000 C   0  0  0  0  0  0  0  0  0  0  0  0
    0.7145   -0.4125    0.0000 C   0  0  0  0  0  0  0  0  0  0  0  0
    1.4289    0.0000    0.0000 C   0  0  0  0  0  0  0  0  0  0  0  0
    2.1434   -0.4125    0.0000 C   0  0  0  0  0  0  0  0  0  0  0  0
    2.1434   -1.2375    0.0000 C   0  0  0  0  0  0  0  0  0  0  0  0
    1.4289   -1.6500    0.0000 O   0  0  0  0  0  0  0  0  0  0  0  0
    2.8579   -1.6500    0.0000 O   0  0  0  0  0  0  0  0  0  0  0  0
  1  2  2  0  0  0  0
  2  3  1  0  0  0  0
  3  4  2  0  0  0  0
  4  5  1  0  0  0  0
  5  6  2  0  0  0  0
  1  6  1  0  0  0  0
  6  7  1  0  0  0  0
  7  8  2  0  0  0  0
  8  9  1  0  0  0  0
  9 10  1  0  0  0  0
  5 10  1  0  0  0  0
  9 11  2  0  0  0  0
M  END
>  <Name>
Coumarin

>  <CAS>
91-64-5

>  <Formula>
C9H6O2

>  <MolWt>
146.14 

>  <Bioactivity>
Extracted from Tonka bean,incense Liatris; Suitability:Alcohol,ether,chloroform,pyridine,volatile oil and alkali hydroxide solution;Store the product in sealed,cool and dry condition

>  <Pathways>
Metabolism; Vitamin

>  <Target>
Factor Xa inhibitor;VK antagonist

>  <Receptor>
Factor Xa ;VK

>  <Reference>
1. Egan D, et al. Drug Metab Rev, 1990, 22(5), 503-529.

$$$$
527-07-1
  Mrv1561503291623562D          

 14 12  0  0  0  0            999 V2000
    3.7125   -2.1434    0.0000 C   0  0  0  0  0  0  0  0  0  0  0  0
    2.9980   -2.5559    0.0000 O   0  0  0  0  0  0  0  0  0  0  0  0
    4.4270   -2.5559    0.0000 C   0  0  0  0  0  0  0  0  0  0  0  0
    4.4270   -3.3809    0.0000 O   0  0  0  0  0  0  0  0  0  0  0  0
    5.1414   -2.1434    0.0000 C   0  0  0  0  0  0  0  0  0  0  0  0
    5.1414   -1.3184    0.0000 O   0  0  0  0  0  0  0  0  0  0  0  0
    5.8559   -2.5559    0.0000 C   0  0  0  0  0  0  0  0  0  0  0  0
    5.8559   -3.3809    0.0000 O   0  0  0  0  0  0  0  0  0  0  0  0
    6.5704   -2.1434    0.0000 C   0  0  0  0  0  0  0  0  0  0  0  0
    6.5704   -1.3184    0.0000 O   0  0  0  0  0  0  0  0  0  0  0  0
    7.2849   -2.5559    0.0000 C   0  0  0  0  0  0  0  0  0  0  0  0
    7.9993   -2.1434    0.0000 O   0  5  0  0  0  0  0  0  0  0  0  0
    7.2849   -3.3809    0.0000 O   0  0  0  0  0  0  0  0  0  0  0  0
    8.7138   -1.7309    0.0000 Na  0  3  0  0  0  0  0  0  0  0  0  0
  1  2  1  0  0  0  0
  1  3  1  0  0  0  0
  3  4  1  0  0  0  0
  3  5  1  0  0  0  0
  5  6  1  0  0  0  0
  5  7  1  0  0  0  0
  7  8  1  0  0  0  0
  7  9  1  0  0  0  0
  9 10  1  0  0  0  0
  9 11  1  0  0  0  0
 11 12  1  0  0  0  0
 11 13  2  0  0  0  0
M  CHG  2  12  -1  14   1
M  END
>  <Name>
Sodium gluconate

>  <CAS>
527-07-1

>  <Formula>
C6H11NaO7

>  <MolWt>
218.14 

>  <Bioactivity>
Sodium gluconate is the sodium salt of gluconic acid widely used in food and pharmaceutical industry.

>  <Pathways>
Others

>  <Target>
Others

>  <Receptor>
Others

>  <Reference>
1. Ramachandran S, et al. Food Technol. Biotechnol, 2006, 44(2) 185-195.

$$$$
2277-92-1
  Mrv1561503291623562D          

 22 23  0  0  0  0            999 V2000
    2.1434   -2.8875    0.0000 C   0  0  0  0  0  0  0  0  0  0  0  0
    2.1434   -3.7125    0.0000 C   0  0  0  0  0  0  0  0  0  0  0  0
    1.4289   -4.1250    0.0000 C   0  0  0  0  0  0  0  0  0  0  0  0
    0.7145   -3.7125    0.0000 C   0  0  0  0  0  0  0  0  0  0  0  0
   -0.0000   -4.1250    0.0000 C   0  0  0  0  0  0  0  0  0  0  0  0
   -0.0000   -4.9500    0.0000 N   0  0  0  0  0  0  0  0  0  0  0  0
   -0.7145   -5.3625    0.0000 C   0  0  0  0  0  0  0  0  0  0  0  0
   -0.7145   -6.1875    0.0000 C   0  0  0  0  0  0  0  0  0  0  0  0
   -1.4289   -6.6000    0.0000 C   0  0  0  0  0  0  0  0  0  0  0  0
   -2.1434   -6.1875    0.0000 C   0  0  0  0  0  0  0  0  0  0  0  0
   -2.1434   -5.3625    0.0000 C   0  0  0  0  0  0  0  0  0  0  0  0
   -1.4289   -4.9500    0.0000 C   0  0  0  0  0  0  0  0  0  0  0  0
   -1.4289   -4.1250    0.0000 O   0  0  0  0  0  0  0  0  0  0  0  0
   -2.8579   -4.9500    0.0000 Cl  0  0  0  0  0  0  0  0  0  0  0  0
   -1.4289   -7.4250    0.0000 Cl  0  0  0  0  0  0  0  0  0  0  0  0
   -0.7145   -3.7125    0.0000 O   0  0  0  0  0  0  0  0  0  0  0  0
    0.7145   -2.8875    0.0000 C   0  0  0  0  0  0  0  0  0  0  0  0
    1.4289   -2.4750    0.0000 C   0  0  0  0  0  0  0  0  0  0  0  0
    1.4289   -1.6500    0.0000 Cl  0  0  0  0  0  0  0  0  0  0  0  0
   -0.0000   -2.4750    0.0000 Cl  0  0  0  0  0  0  0  0  0  0  0  0
    1.4289   -4.9500    0.0000 O   0  0  0  0  0  0  0  0  0  0  0  0
    2.8579   -4.1250    0.0000 Cl  0  0  0  0  0  0  0  0  0  0  0  0
  1  2  2  0  0  0  0
  2  3  1  0  0  0  0
  3  4  2  0  0  0  0
  4  5  1  0  0  0  0
  5  6  1  0  0  0  0
  6  7  1  0  0  0  0
  7  8  2  0  0  0  0
  8  9  1  0  0  0  0
  9 10  2  0  0  0  0
 10 11  1  0  0  0  0
 11 12  2  0  0  0  0
  7 12  1  0  0  0  0
 12 13  1  0  0  0  0
 11 14  1  0  0  0  0
  9 15  1  0  0  0  0
  5 16  2  0  0  0  0
  4 17  1  0  0  0  0
 17 18  2  0  0  0  0
  1 18  1  0  0  0  0
 18 19  1  0  0  0  0
 17 20  1  0  0  0  0
  3 21  1  0  0  0  0
  2 22  1  0  0  0  0
M  END
>  <Name>
Oxyclozanide

>  <CAS>
2277-92-1

>  <Formula>
C13H6Cl5NO3

>  <MolWt>
401.46 

>  <Bioactivity>
Oxyclozanide is a salicylanilide anthelmintic used in the treatment and control of Fascioliasis in ruminants mainly domestic animals like Cattle, Sheep and Goats.

>  <Pathways>
Others

>  <Target>
Others

>  <Receptor>
Others

>  <Reference>
1. Paraud C, et al. Vet J. 2009 May;180(2):265-7.

$$$$
8024-48-4
  Mrv1561503291623562D          

 31 34  0  0  0  0            999 V2000
    4.2868    0.8250    0.0000 C   0  0  0  0  0  0  0  0  0  0  0  0
    3.5724    1.2375    0.0000 C   0  0  0  0  0  0  0  0  0  0  0  0
    2.8579    0.8250    0.0000 C   0  0  0  0  0  0  0  0  0  0  0  0
    2.8579   -0.0000    0.0000 C   0  0  0  0  0  0  0  0  0  0  0  0
    3.5724   -0.4125    0.0000 C   0  0  0  0  0  0  0  0  0  0  0  0
    4.2868   -0.0000    0.0000 C   0  0  0  0  0  0  0  0  0  0  0  0
    3.5724   -1.2375    0.0000 O   0  0  0  0  0  0  0  0  0  0  0  0
    2.1434   -0.4125    0.0000 C   0  0  0  0  0  0  0  0  0  0  0  0
    2.1434   -1.2375    0.0000 O   0  0  0  0  0  0  0  0  0  0  0  0
    1.4289    0.0000    0.0000 C   0  0  0  0  0  0  0  0  0  0  0  0
    0.7145   -0.4125    0.0000 C   0  0  0  0  0  0  0  0  0  0  0  0
    0.0000   -0.0000    0.0000 C   0  0  0  0  0  0  0  0  0  0  0  0
   -0.0000    0.8250    0.0000 C   0  0  0  0  0  0  0  0  0  0  0  0
    0.7145    1.2375    0.0000 C   0  0  0  0  0  0  0  0  0  0  0  0
    1.4289    0.8250    0.0000 C   0  0  0  0  0  0  0  0  0  0  0  0
    2.1434    1.2375    0.0000 C   0  0  0  0  0  0  0  0  0  0  0  0
    2.1434    2.0625    0.0000 O   0  0  0  0  0  0  0  0  0  0  0  0
    2.8579    2.4750    0.0000 C   0  0  0  0  0  0  0  0  0  0  0  0
    2.8579    3.3000    0.0000 C   0  0  0  0  0  0  0  0  0  0  0  0
    3.5724    3.7125    0.0000 C   0  0  0  0  0  0  0  0  0  0  0  0
    4.2868    3.3000    0.0000 C   0  0  0  0  0  0  0  0  0  0  0  0
    4.2868    2.4750    0.0000 C   0  0  0  0  0  0  0  0  0  0  0  0
    3.5724    2.0625    0.0000 O   0  0  0  0  0  0  0  0  0  0  0  0
    5.0013    2.0625    0.0000 C   0  0  0  0  0  0  0  0  0  0  0  0
    5.7158    2.4750    0.0000 O   0  0  0  0  0  0  0  0  0  0  0  0
    5.0013    3.7125    0.0000 O   0  0  0  0  0  0  0  0  0  0  0  0
    3.5724    4.5375    0.0000 O   0  0  0  0  0  0  0  0  0  0  0  0
    2.1434    3.7125    0.0000 O   0  0  0  0  0  0  0  0  0  0  0  0
   -0.7145    1.2375    0.0000 C   0  0  0  0  0  0  0  0  0  0  0  0
   -1.4289    0.8250    0.0000 O   0  0  0  0  0  0  0  0  0  0  0  0
    0.7145   -1.2375    0.0000 O   0  0  0  0  0  0  0  0  0  0  0  0
  1  2  2  0  0  0  0
  2  3  1  0  0  0  0
  3  4  2  0  0  0  0
  4  5  1  0  0  0  0
  5  6  2  0  0  0  0
  1  6  1  0  0  0  0
  5  7  1  0  0  0  0
  4  8  1  0  0  0  0
  8  9  2  0  0  0  0
  8 10  1  0  0  0  0
 10 11  2  0  0  0  0
 11 12  1  0  0  0  0
 12 13  2  0  0  0  0
 13 14  1  0  0  0  0
 14 15  2  0  0  0  0
 10 15  1  0  0  0  0
 15 16  1  0  0  0  0
  3 16  1  0  0  0  0
 16 17  1  0  0  0  0
 17 18  1  0  0  0  0
 18 19  1  0  0  0  0
 19 20  1  0  0  0  0
 20 21  1  0  0  0  0
 21 22  1  0  0  0  0
 22 23  1  0  0  0  0
 18 23  1  0  0  0  0
 22 24  1  0  0  0  0
 24 25  1  0  0  0  0
 21 26  1  0  0  0  0
 20 27  1  0  0  0  0
 19 28  1  0  0  0  0
 13 29  1  0  0  0  0
 29 30  1  0  0  0  0
 11 31  1  0  0  0  0
M  END
>  <Name>
Casanthranol

>  <CAS>
8024-48-4

>  <Formula>
C21H22O10

>  <MolWt>
396.58 

>  <Bioactivity>
Dried aged bark of a buckthorn, Frangula purshiana (FRANGULA), that contains the anthraquinone EMODIN and cascarosides. It is used as a laxative (CATHARTICS).


>  <Pathways>
Others

>  <Target>
Others

>  <Receptor>
Others

>  <Reference>
1. Borrelli F, et al. Life Sci. 2001 Sep 7;69(16):1871-7.

$$$$
77-09-8
  Mrv1561503291623562D          

 24 27  0  0  0  0            999 V2000
    3.2789    1.2375    0.0000 C   0  0  0  0  0  0  0  0  0  0  0  0
    3.9934    0.8250    0.0000 C   0  0  0  0  0  0  0  0  0  0  0  0
    3.9934    0.0000    0.0000 C   0  0  0  0  0  0  0  0  0  0  0  0
    3.2789   -0.4125    0.0000 C   0  0  0  0  0  0  0  0  0  0  0  0
    2.5645   -0.0000    0.0000 C   0  0  0  0  0  0  0  0  0  0  0  0
    2.5645    0.8250    0.0000 C   0  0  0  0  0  0  0  0  0  0  0  0
    1.7798    1.0799    0.0000 C   0  0  0  0  0  0  0  0  0  0  0  0
    2.1154    1.8336    0.0000 C   0  0  0  0  0  0  0  0  0  0  0  0
    1.6305    2.5011    0.0000 C   0  0  0  0  0  0  0  0  0  0  0  0
    1.9660    3.2547    0.0000 C   0  0  0  0  0  0  0  0  0  0  0  0
    2.7865    3.3410    0.0000 C   0  0  0  0  0  0  0  0  0  0  0  0
    3.1221    4.0946    0.0000 O   0  0  0  0  0  0  0  0  0  0  0  0
    3.2714    2.6735    0.0000 C   0  0  0  0  0  0  0  0  0  0  0  0
    2.9359    1.9199    0.0000 C   0  0  0  0  0  0  0  0  0  0  0  0
    1.0654    1.4924    0.0000 C   0  0  0  0  0  0  0  0  0  0  0  0
    0.3509    1.0799    0.0000 C   0  0  0  0  0  0  0  0  0  0  0  0
   -0.3636    1.4924    0.0000 C   0  0  0  0  0  0  0  0  0  0  0  0
   -0.3636    2.3174    0.0000 C   0  0  0  0  0  0  0  0  0  0  0  0
    0.3509    2.7299    0.0000 C   0  0  0  0  0  0  0  0  0  0  0  0
    1.0654    2.3174    0.0000 C   0  0  0  0  0  0  0  0  0  0  0  0
   -1.0780    2.7299    0.0000 O   0  0  0  0  0  0  0  0  0  0  0  0
    1.2949    0.4125    0.0000 O   0  0  0  0  0  0  0  0  0  0  0  0
    1.7798   -0.2549    0.0000 C   0  0  0  0  0  0  0  0  0  0  0  0
    1.5249   -1.0396    0.0000 O   0  0  0  0  0  0  0  0  0  0  0  0
  1  2  2  0  0  0  0
  2  3  1  0  0  0  0
  3  4  2  0  0  0  0
  4  5  1  0  0  0  0
  5  6  2  0  0  0  0
  1  6  1  0  0  0  0
  6  7  1  0  0  0  0
  7  8  1  0  0  0  0
  8  9  2  0  0  0  0
  9 10  1  0  0  0  0
 10 11  2  0  0  0  0
 11 12  1  0  0  0  0
 11 13  1  0  0  0  0
 13 14  2  0  0  0  0
  8 14  1  0  0  0  0
  7 15  1  0  0  0  0
 15 16  2  0  0  0  0
 16 17  1  0  0  0  0
 17 18  2  0  0  0  0
 18 19  1  0  0  0  0
 19 20  2  0  0  0  0
 15 20  1  0  0  0  0
 18 21  1  0  0  0  0
  7 22  1  0  0  0  0
 22 23  1  0  0  0  0
  5 23  1  0  0  0  0
 23 24  2  0  0  0  0
M  END
>  <Name>
Phenolphthalein

>  <CAS>
77-09-8

>  <Formula>
C20H14O4

>  <MolWt>
318.33 

>  <Bioactivity>
An acid-base indicator which is colorless in acid solution, but turns pink to red as the solution becomes alkaline. It is used medicinally as a cathartic. 

>  <Pathways>
Others

>  <Target>
Others

>  <Receptor>
Others

>  <Reference>
1. Uesawa Y, et al. Arch Toxicol. 2007 Mar;81(3):163-8. 

$$$$
16485-10-2
  Mrv1561503291623562D          

 14 13  0  0  0  0            999 V2000
   -2.3349   -0.3020    0.0000 C   0  0  0  0  0  0  0  0  0  0  0  0
   -1.6204   -0.7145    0.0000 C   0  0  0  0  0  0  0  0  0  0  0  0
   -0.9059   -1.1270    0.0000 C   0  0  0  0  0  0  0  0  0  0  0  0
   -0.1914   -0.7145    0.0000 C   0  0  0  0  0  0  0  0  0  0  0  0
    0.5230   -1.1270    0.0000 N   0  0  0  0  0  0  0  0  0  0  0  0
    1.2375   -0.7145    0.0000 C   0  0  0  0  0  0  0  0  0  0  0  0
    1.9520   -1.1270    0.0000 C   0  0  0  0  0  0  0  0  0  0  0  0
    2.6664   -0.7145    0.0000 C   0  0  0  0  0  0  0  0  0  0  0  0
    3.3809   -1.1270    0.0000 O   0  0  0  0  0  0  0  0  0  0  0  0
   -0.1914    0.1105    0.0000 O   0  0  0  0  0  0  0  0  0  0  0  0
   -0.9059   -1.9520    0.0000 O   0  0  0  0  0  0  0  0  0  0  0  0
   -1.2079    0.0000    0.0000 C   0  0  0  0  0  0  0  0  0  0  0  0
   -2.0329   -1.4289    0.0000 C   0  0  0  0  0  0  0  0  0  0  0  0
   -3.0493   -0.7145    0.0000 O   0  0  0  0  0  0  0  0  0  0  0  0
  1  2  1  0  0  0  0
  2  3  1  0  0  0  0
  3  4  1  0  0  0  0
  4  5  1  0  0  0  0
  5  6  1  0  0  0  0
  6  7  1  0  0  0  0
  7  8  1  0  0  0  0
  8  9  1  0  0  0  0
  4 10  2  0  0  0  0
  3 11  1  0  0  0  0
  2 12  1  0  0  0  0
  2 13  1  0  0  0  0
  1 14  1  0  0  0  0
M  END
>  <Name>
Panthenol

>  <CAS>
16485-10-2

>  <Formula>
C9H19NO4

>  <MolWt>
205.26 

>  <Bioactivity>
Panthenol (pantothenol) is the alcohol analog of pantothenic acid (vitamin B5), and is thus a provitamin of B5. In organisms it is quickly oxidized to pantothenate. Panthenol is a highly viscous transparent liquid at room temperature, but salts of pantothenic acid (for example sodium pantothenate) are powders (typically white).

>  <Pathways>
Vitamin

>  <Target>
VB

>  <Receptor>
Analog of VB5

>  <Reference>
1. Bissett DL. Clin Dermatol. 2009 Sep-Oct;27(5):435-45. 

$$$$
302-17-0
  Mrv1561503291623562D          

  7  6  0  0  0  0            999 V2000
    1.2375    0.7145    0.0000 O   0  0  0  0  0  0  0  0  0  0  0  0
    0.8250    0.0000    0.0000 C   0  0  0  0  0  0  0  0  0  0  0  0
    1.2375   -0.7145    0.0000 C   0  0  0  0  0  0  0  0  0  0  0  0
    1.6500   -1.4289    0.0000 Cl  0  0  0  0  0  0  0  0  0  0  0  0
    0.5230   -1.1270    0.0000 Cl  0  0  0  0  0  0  0  0  0  0  0  0
    1.9520   -0.3020    0.0000 Cl  0  0  0  0  0  0  0  0  0  0  0  0
    0.0000    0.0000    0.0000 O   0  0  0  0  0  0  0  0  0  0  0  0
  1  2  1  0  0  0  0
  2  3  1  0  0  0  0
  3  4  1  0  0  0  0
  3  5  1  0  0  0  0
  3  6  1  0  0  0  0
  2  7  1  0  0  0  0
M  END
>  <Name>
Chloral hydrate

>  <CAS>
302-17-0

>  <Formula>
C2H3Cl3O2

>  <MolWt>
165.40 

>  <Bioactivity>
Chloral Hydrate is a synthetic monohydrate of chloral with sedative, hypnotic, and anticonvulsive properties. Chloral hydrate is converted to the active compound trichloroethanol by hepatic alcohol dehydrogenase. The agent interacts with various neurotransmitter-operated ion channels, thereby enhancing gamma-aminobutyric acid (GABA)-A receptor mediated chloride currents and inhibiting amino acid receptor-activated ion currents. In addition, chloral hydrate enhances the agonistic effects of glycine receptors, inhibits AMPA-induced calcium influx in cortical neurons, and facilitates 5-HT 3 receptor-mediated currents in ganglionic neurons. Overall, this results in a depressive effect on the central nervous system.

>  <Pathways>
Neuroscience

>  <Target>
GABAR

>  <Receptor>
GABA receptor

>  <Reference>
1. Delgado J, et al. Pediatr Radiol. 2015 Jan;45(1):108-14

$$$$
T1083L
  Mrv1561503291623562D          

 14 14  0  0  0  0            999 V2000
   -1.8206   -0.0000    0.0000 C   0  0  0  0  0  0  0  0  0  0  0  0
   -1.3357   -0.6674    0.0000 N   0  0  0  0  0  0  0  0  0  0  0  0
   -0.5511   -0.4125    0.0000 C   0  0  0  0  0  0  0  0  0  0  0  0
   -0.5511    0.4125    0.0000 C   0  0  0  0  0  0  0  0  0  0  0  0
   -1.3357    0.6674    0.0000 N   0  0  0  0  0  0  0  0  0  0  0  0
    0.1634    0.8250    0.0000 C   0  0  0  0  0  0  0  0  0  0  0  0
    0.1634    1.6500    0.0000 O   0  0  0  0  0  0  0  0  0  0  0  0
    0.8779    0.4125    0.0000 N   0  0  0  0  0  0  0  0  0  0  0  0
    0.8779   -0.4125    0.0000 C   0  0  0  0  0  0  0  0  0  0  0  0
    1.5924   -0.8250    0.0000 O   0  0  0  0  0  0  0  0  0  0  0  0
    0.1634   -0.8250    0.0000 N   0  0  0  0  0  0  0  0  0  0  0  0
    0.1634   -1.6500    0.0000 C   0  0  0  0  0  0  0  0  0  0  0  0
    1.5924    0.8250    0.0000 C   0  0  0  0  0  0  0  0  0  0  0  0
    3.9495    0.0000    0.0000 O   0  0  0  0  0  0  0  0  0  0  0  0
  1  2  2  0  0  0  0
  2  3  1  0  0  0  0
  3  4  2  0  0  0  0
  4  5  1  0  0  0  0
  1  5  1  0  0  0  0
  4  6  1  0  0  0  0
  6  7  2  0  0  0  0
  6  8  1  0  0  0  0
  8  9  1  0  0  0  0
  9 10  2  0  0  0  0
  9 11  1  0  0  0  0
  3 11  1  0  0  0  0
 11 12  1  0  0  0  0
  8 13  1  0  0  0  0
M  END
>  <Name>
Theophylline monohydrate

>  <CAS>
5967-84-0

>  <Formula>
C7H8N4O2.H2O

>  <MolWt>
198.18 

>  <Bioactivity>
A methylxanthine derivative from tea with diuretic, smooth muscle relaxant, bronchial dilation, cardiac and central nervous system stimulant activities. Mechanistically, theophylline acts as a phosphodiesterase inhibitor, adenosine receptor blocker, and histone deacetylase activator. Theophylline is marketed under several brand names such as Uniphyl and Theochron, and it is indicated mainly for asthma, bronchospasm, and COPD.

>  <Pathways>
Chromatin/Epigenetic; GPCR/G Protein; Metabolism

>  <Target>
Adenosine Receptor antagonist;HDAC2 activator;PDE inhibitor

>  <Receptor>
Adenosine receptor;HDAC2;PDE

>  <Reference>
1. Nantwi KD, et al. J Spinal Cord Med. 2003 Winter;26(4):364-71.

$$$$
T0429
  Mrv1561503291623562D          

 12 12  0  0  0  0            999 V2000
    0.7145    2.0625    0.0000 C   0  0  0  0  0  0  0  0  0  0  0  0
    0.7145    1.2375    0.0000 C   0  0  0  0  0  0  0  0  0  0  0  0
    1.4289    0.8250    0.0000 C   0  0  0  0  0  0  0  0  0  0  0  0
    1.4289    0.0000    0.0000 C   0  0  0  0  0  0  0  0  0  0  0  0
    0.7145   -0.4125    0.0000 C   0  0  0  0  0  0  0  0  0  0  0  0
    0.0000   -0.0000    0.0000 C   0  0  0  0  0  0  0  0  0  0  0  0
   -0.7145   -0.4125    0.0000 O   0  0  0  0  0  0  0  0  0  0  0  0
    0.0000    0.8250    0.0000 O   0  0  0  0  0  0  0  0  0  0  0  0
    0.7145   -1.2375    0.0000 N   0  0  0  0  0  0  0  0  0  0  0  0
    2.1434   -0.4125    0.0000 O   0  0  0  0  0  0  0  0  0  0  0  0
    2.1434    1.2375    0.0000 O   0  0  0  0  0  0  0  0  0  0  0  0
   -0.0000    2.4750    0.0000 O   0  0  0  0  0  0  0  0  0  0  0  0
  1  2  1  0  0  0  0
  2  3  1  0  0  0  0
  3  4  1  0  0  0  0
  4  5  1  0  0  0  0
  5  6  1  0  0  0  0
  6  7  1  0  0  0  0
  6  8  1  0  0  0  0
  2  8  1  0  0  0  0
  5  9  1  0  0  0  0
  4 10  1  0  0  0  0
  3 11  1  0  0  0  0
  1 12  1  0  0  0  0
M  END
>  <Name>
Glucosamine

>  <CAS>
3416-24-8

>  <Formula>
C6H13NO5

>  <MolWt>
179.17 

>  <Bioactivity>
Glucosamine is commonly used as a treatment for osteoarthritis, although its acceptance as a medical therapy varies. It is an amino sugar and a prominent precursor in the biochemical synthesis of glycosylated proteins and lipids. Since glucosamine is a precursor for glycosaminoglycans, and glycosaminoglycans are a major component of joint cartilage, supplemental glucosamine may help to rebuild cartilage and treat arthritis.  

>  <Pathways>
Proteases/Proteasome; Immunology/Inflammation

>  <Target>
MMP antagonist;NF-?B inhibitor;IF inhibitor;Chitosanase;TNF inhibitor

>  <Receptor>
MMP 9; NF-?B p100;IF?;Chitosanase;TNF

>  <Reference>
1. Fenton JI, et al. Equine Vet J Suppl. 2002 Sep;(34):219-23. 

$$$$
28300-74-5
  Mrv1561503291623562D          

 27 24  0  0  0  0            999 V2000
    0.9450    0.6101    0.0000 C   0  0  0  0  0  0  0  0  0  0  0  0
    0.5088   -0.0901    0.0000 O   0  0  0  0  0  0  0  0  0  0  0  0
    0.8970   -0.8180    0.0000 Sb  0  0  0  0  0  0  0  0  0  0  0  0
    1.8044   -0.4113    0.0000 O   0  0  0  0  0  0  0  0  0  0  0  0
    1.7458    0.4116    0.0000 C   0  0  0  0  0  0  0  0  0  0  0  0
    2.3771    0.9427    0.0000 O   0  0  0  0  0  0  0  0  0  0  0  0
    0.4608   -1.5182    0.0000 O   0  0  0  0  0  0  0  0  0  0  0  0
   -0.3638   -1.4905    0.0000 C   0  0  0  0  0  0  0  0  0  0  0  0
   -0.8000   -2.1907    0.0000 C   0  0  0  0  0  0  0  0  0  0  0  0
   -0.4118   -2.9186    0.0000 O   0  0  0  0  0  0  0  0  0  0  0  0
   -1.6246   -2.1630    0.0000 O   0  5  0  0  0  0  0  0  0  0  0  0
   -0.7520   -0.7626    0.0000 C   0  0  0  0  0  0  0  0  0  0  0  0
   -0.3158   -0.0624    0.0000 O   0  0  0  0  0  0  0  0  0  0  0  0
   -0.7040    0.6655    0.0000 Sb  0  0  0  0  0  0  0  0  0  0  0  0
   -0.2678    1.3658    0.0000 O   0  0  0  0  0  0  0  0  0  0  0  0
    0.5568    1.3380    0.0000 C   0  0  0  0  0  0  0  0  0  0  0  0
    0.9930    2.0383    0.0000 C   0  0  0  0  0  0  0  0  0  0  0  0
    0.6048    2.7662    0.0000 O   0  5  0  0  0  0  0  0  0  0  0  0
    1.8176    2.0105    0.0000 O   0  0  0  0  0  0  0  0  0  0  0  0
   -1.4999    0.3431    0.0000 O   0  0  0  0  0  0  0  0  0  0  0  0
   -1.5277   -0.4814    0.0000 C   0  0  0  0  0  0  0  0  0  0  0  0
   -2.2110   -0.9437    0.0000 O   0  0  0  0  0  0  0  0  0  0  0  0
   -2.4491   -2.1353    0.0000 K   0  3  0  0  0  0  0  0  0  0  0  0
    0.2165    3.4941    0.0000 K   0  3  0  0  0  0  0  0  0  0  0  0
    4.7342    0.0000    0.0000 O   0  0  0  0  0  0  0  0  0  0  0  0
    0.0000   -4.5686    0.0000 O   0  0  0  0  0  0  0  0  0  0  0  0
    2.3571   -4.5686    0.0000 O   0  0  0  0  0  0  0  0  0  0  0  0
  1  2  1  0  0  0  0
  2  3  1  0  0  0  0
  3  4  1  0  0  0  0
  4  5  1  0  0  0  0
  1  5  1  0  0  0  0
  5  6  2  0  0  0  0
  3  7  1  0  0  0  0
  7  8  1  0  0  0  0
  8  9  1  0  0  0  0
  9 10  2  0  0  0  0
  9 11  1  0  0  0  0
  8 12  1  0  0  0  0
 12 13  1  0  0  0  0
 13 14  1  0  0  0  0
 14 15  1  0  0  0  0
 15 16  1  0  0  0  0
  1 16  1  0  0  0  0
 16 17  1  0  0  0  0
 17 18  1  0  0  0  0
 17 19  2  0  0  0  0
 14 20  1  0  0  0  0
 20 21  1  0  0  0  0
 12 21  1  0  0  0  0
 21 22  2  0  0  0  0
M  CHG  4  11  -1  18  -1  23   1  24   1
M  END
>  <Name>
Potassium antimonyl tartrate sesquihydrate

>  <CAS>
28300-74-5

>  <Formula>
C8H4K2O12Sb23H2O

>  <MolWt>
667.87(613.82anhy?

>  <Bioactivity>
Antimony potassium tartrate, also known as potassium antimonyl tartrate, potassium antimontarterate, or emetic tartar, has the formula K2Sb2(C4H2O6)2 and is the double salt of potassium and antimony of tartaric acid. The compound has long been known as a powerful emetic, and was used in the treatment of schistosomiasis and leishmaniasis.

>  <Pathways>
Others

>  <Target>
Others

>  <Receptor>
Others

>  <Reference>
1. Carlisle, J. D., et al. Journal of Field Ornithology 77 (2): 126–135.

$$$$
76-22-2
  Mrv1561503291623562D          

 11 12  0  0  0  0            999 V2000
    1.1486    1.8405    0.0000 C   0  0  0  0  0  0  0  0  0  0  0  0
    1.0875    0.9834    0.0000 C   0  0  0  0  0  0  0  0  0  0  0  0
    1.3164    0.1644    0.0000 C   0  0  0  0  0  0  0  0  0  0  0  0
    1.1329   -0.6660    0.0000 C   0  0  0  0  0  0  0  0  0  0  0  0
    0.2955   -0.3065    0.0000 C   0  0  0  0  0  0  0  0  0  0  0  0
    0.3514    0.6633    0.0000 C   0  0  0  0  0  0  0  0  0  0  0  0
   -0.2613    1.3077    0.0000 O   0  0  0  0  0  0  0  0  0  0  0  0
    1.8357   -0.2340    0.0000 C   0  0  0  0  0  0  0  0  0  0  0  0
    1.8131    0.5907    0.0000 C   0  0  0  0  0  0  0  0  0  0  0  0
    0.4740    0.1656    0.0000 C   0  0  0  0  0  0  0  0  0  0  0  0
    0.6653   -0.6284    0.0000 C   0  0  0  0  0  0  0  0  0  0  0  0
  1  2  1  0  0  0  0
  2  3  1  0  0  0  0
  3  4  1  0  0  0  0
  4  5  1  0  0  0  0
  5  6  1  0  0  0  0
  2  6  1  0  0  0  0
  6  7  2  0  0  0  0
  4  8  1  0  0  0  0
  8  9  1  0  0  0  0
  2  9  1  0  0  0  0
  3 10  1  0  0  0  0
  3 11  1  0  0  0  0
M  END
>  <Name>
Camphor

>  <CAS>
76-22-2

>  <Formula>
C10H16O

>  <MolWt>
152.24 

>  <Bioactivity>
Camphor is a bicyclic monoterpene ketone found widely in plants, especially CINNAMOMUM CAMPHORA. It is used topically as a skin antipruritic and as an anti-infective agent.

>  <Pathways>
Others

>  <Target>
Others

>  <Receptor>
Others

>  <Reference>
1. Willetts A, Kelly DR. Microbiology. 2014 Aug;160(Pt 8):1783-94. 

$$$$
50-81-7
  Mrv1561503291623562D          

 12 12  0  0  0  0            999 V2000
    1.2822    2.3518    0.0000 C   0  0  0  0  0  0  0  0  0  0  0  0
    1.2822    3.1768    0.0000 O   0  0  0  0  0  0  0  0  0  0  0  0
    0.5678    1.9393    0.0000 C   0  0  0  0  0  0  0  0  0  0  0  0
   -0.1467    2.3518    0.0000 O   0  0  0  0  0  0  0  0  0  0  0  0
    0.5678    1.1143    0.0000 C   0  0  0  0  0  0  0  0  0  0  0  0
    1.2352    0.6294    0.0000 O   0  0  0  0  0  0  0  0  0  0  0  0
    0.9803   -0.1553    0.0000 C   0  0  0  0  0  0  0  0  0  0  0  0
    0.1553   -0.1553    0.0000 C   0  0  0  0  0  0  0  0  0  0  0  0
   -0.3297   -0.8227    0.0000 O   0  0  0  0  0  0  0  0  0  0  0  0
   -0.0997    0.6294    0.0000 C   0  0  0  0  0  0  0  0  0  0  0  0
   -0.8843    0.8843    0.0000 O   0  0  0  0  0  0  0  0  0  0  0  0
    1.4652   -0.8227    0.0000 O   0  0  0  0  0  0  0  0  0  0  0  0
  1  2  1  0  0  0  0
  1  3  1  0  0  0  0
  3  4  1  0  0  0  0
  3  5  1  0  0  0  0
  5  6  1  0  0  0  0
  6  7  1  0  0  0  0
  7  8  2  0  0  0  0
  8  9  1  0  0  0  0
  8 10  1  0  0  0  0
  5 10  1  0  0  0  0
 10 11  2  0  0  0  0
  7 12  1  0  0  0  0
M  END
>  <Name>
L(+)-Ascorbic acid

>  <CAS>
50-81-7

>  <Formula>
C6H8O6

>  <MolWt>
176.12 

>  <Bioactivity>
Vitamin C is a water-soluble vitamin indicated for the prevention and treatment of scurvy.

>  <Pathways>
Vitamin

>  <Target>
VC

>  <Receptor>
VC

>  <Reference>
1. Witenberg B, et al. Biochem Pharmacol, 1999, 57(7), 823-832.

$$$$
98-92-0
  Mrv1561503291623562D          

  9  9  0  0  0  0            999 V2000
    1.4289    0.8250    0.0000 C   0  0  0  0  0  0  0  0  0  0  0  0
    1.4289    0.0000    0.0000 C   0  0  0  0  0  0  0  0  0  0  0  0
    0.7145   -0.4125    0.0000 C   0  0  0  0  0  0  0  0  0  0  0  0
   -0.0000    0.0000    0.0000 N   0  0  0  0  0  0  0  0  0  0  0  0
   -0.0000    0.8250    0.0000 C   0  0  0  0  0  0  0  0  0  0  0  0
    0.7145    1.2375    0.0000 C   0  0  0  0  0  0  0  0  0  0  0  0
    0.7145    2.0625    0.0000 C   0  0  0  0  0  0  0  0  0  0  0  0
    0.0000    2.4750    0.0000 N   0  0  0  0  0  0  0  0  0  0  0  0
    1.4289    2.4750    0.0000 O   0  0  0  0  0  0  0  0  0  0  0  0
  1  2  2  0  0  0  0
  2  3  1  0  0  0  0
  3  4  2  0  0  0  0
  4  5  1  0  0  0  0
  5  6  2  0  0  0  0
  1  6  1  0  0  0  0
  6  7  1  0  0  0  0
  7  8  1  0  0  0  0
  7  9  2  0  0  0  0
M  END
>  <Name>
Nicotinamide

>  <CAS>
98-92-0

>  <Formula>
C6H6N2O

>  <MolWt>
122.12 

>  <Bioactivity>
Nicotinamide (Vitamin B3), a water-soluble vitamin, is an active component of coenzymes NAD and NADP, and also act as an activator of sirtuins.

>  <Pathways>
Vitamin

>  <Target>
VB

>  <Receptor>
VB3

>  <Reference>
1. Bitterman KJ, et al. J Biol Chem, 2002, 277(47), 45099-45107.

$$$$
110-15-6
  Mrv1561503291623562D          

  8  7  0  0  0  0            999 V2000
    1.2375    0.7145    0.0000 C   0  0  0  0  0  0  0  0  0  0  0  0
    0.5230    1.1270    0.0000 C   0  0  0  0  0  0  0  0  0  0  0  0
   -0.1914    0.7145    0.0000 O   0  0  0  0  0  0  0  0  0  0  0  0
    0.5230    1.9520    0.0000 O   0  0  0  0  0  0  0  0  0  0  0  0
    1.9520    1.1270    0.0000 C   0  0  0  0  0  0  0  0  0  0  0  0
    2.6664    0.7145    0.0000 C   0  0  0  0  0  0  0  0  0  0  0  0
    3.3809    1.1270    0.0000 O   0  0  0  0  0  0  0  0  0  0  0  0
    2.6664   -0.1105    0.0000 O   0  0  0  0  0  0  0  0  0  0  0  0
  1  2  1  0  0  0  0
  2  3  1  0  0  0  0
  2  4  2  0  0  0  0
  1  5  1  0  0  0  0
  5  6  1  0  0  0  0
  6  7  1  0  0  0  0
  6  8  2  0  0  0  0
M  END
>  <Name>
Succinic acid

>  <CAS>
110-15-6

>  <Formula>
C4H6O4

>  <MolWt>
118.09 

>  <Bioactivity>
Extracted from Amber;Suitability:Water;Store the product in sealed,cool and dry condition

>  <Pathways>
Others

>  <Target>
Others

>  <Receptor>
Others

>  <Reference>
1. Sanjeeva Gandhi M, Mok YS. Chemosphere. 2014 Dec;117:440-6.

$$$$
97-59-6
  Mrv1561503291623562D          

 11 11  0  0  0  0            999 V2000
    0.5678    1.9393    0.0000 O   0  0  0  0  0  0  0  0  0  0  0  0
    0.5678    1.1143    0.0000 C   0  0  0  0  0  0  0  0  0  0  0  0
    1.2352    0.6294    0.0000 C   0  0  0  0  0  0  0  0  0  0  0  0
    0.9803   -0.1553    0.0000 N   0  0  0  0  0  0  0  0  0  0  0  0
    0.1553   -0.1553    0.0000 C   0  0  0  0  0  0  0  0  0  0  0  0
   -0.3297   -0.8227    0.0000 O   0  0  0  0  0  0  0  0  0  0  0  0
   -0.0997    0.6294    0.0000 N   0  0  0  0  0  0  0  0  0  0  0  0
    2.0198    0.8843    0.0000 N   0  0  0  0  0  0  0  0  0  0  0  0
    2.6329    0.3323    0.0000 C   0  0  0  0  0  0  0  0  0  0  0  0
    3.4175    0.5872    0.0000 N   0  0  0  0  0  0  0  0  0  0  0  0
    2.4614   -0.4747    0.0000 O   0  0  0  0  0  0  0  0  0  0  0  0
  1  2  2  0  0  0  0
  2  3  1  0  0  0  0
  3  4  1  0  0  0  0
  4  5  1  0  0  0  0
  5  6  2  0  0  0  0
  5  7  1  0  0  0  0
  2  7  1  0  0  0  0
  3  8  1  0  0  0  0
  8  9  1  0  0  0  0
  9 10  1  0  0  0  0
  9 11  2  0  0  0  0
M  END
>  <Name>
Allantoin

>  <CAS>
97-59-6

>  <Formula>
C4H6N4O3

>  <MolWt>
158.12 

>  <Bioactivity>
Extracted from Dioscorea opposite Thunb

>  <Pathways>
Others

>  <Target>
Others

>  <Receptor>
others

>  <Reference>
1. Chen MF, et al. Biomed Res Int. 2014;2014:690135. 

$$$$
T0404
  Mrv1561503291623562D          

 11 12  0  0  0  0            999 V2000
    0.0000   -1.6500    0.0000 C   0  0  0  0  0  0  0  0  0  0  0  0
    0.7145   -1.2375    0.0000 C   0  0  0  0  0  0  0  0  0  0  0  0
    0.7145   -0.4125    0.0000 C   0  0  0  0  0  0  0  0  0  0  0  0
   -0.0000    0.0000    0.0000 C   0  0  0  0  0  0  0  0  0  0  0  0
   -0.0000    0.8250    0.0000 O   0  0  0  0  0  0  0  0  0  0  0  0
   -0.7145   -0.4125    0.0000 C   0  0  0  0  0  0  0  0  0  0  0  0
   -0.7145   -1.2375    0.0000 C   0  0  0  0  0  0  0  0  0  0  0  0
    1.4289    0.0000    0.0000 N   0  0  0  0  0  0  0  0  0  0  0  0
    2.1434   -0.4125    0.0000 C   0  0  0  0  0  0  0  0  0  0  0  0
    2.1434   -1.2375    0.0000 C   0  0  0  0  0  0  0  0  0  0  0  0
    1.4289   -1.6500    0.0000 C   0  0  0  0  0  0  0  0  0  0  0  0
  1  2  2  0  0  0  0
  2  3  1  0  0  0  0
  3  4  2  0  0  0  0
  4  5  1  0  0  0  0
  4  6  1  0  0  0  0
  6  7  2  0  0  0  0
  1  7  1  0  0  0  0
  3  8  1  0  0  0  0
  8  9  2  0  0  0  0
  9 10  1  0  0  0  0
 10 11  2  0  0  0  0
  2 11  1  0  0  0  0
M  END
>  <Name>
Hydroxyquinoline

>  <CAS>
148-24-3

>  <Formula>
C9H7NO

>  <MolWt>
145.16 

>  <Bioactivity>
An antiseptic with mild fungistatic, bacteriostatic, anthelmintic, and amebicidal action. It is also used as a reagent and metal chelator, as a carrier for radio-indium for diagnostic purposes, and its halogenated derivatives are used in addition as topical anti-infective agents and oral antiamebics. 

>  <Pathways>
Microbiology & Virology

>  <Target>
Antibiotic

>  <Receptor>
Others

>  <Reference>
1. Freitas LB, et al. Eur J Med Chem. 2014 Sep 12;84:595-604.

$$$$
T0005
  Mrv1561503291623562D          

 13 13  0  0  0  0            999 V2000
    1.4289    0.8250    0.0000 C   0  0  0  0  0  0  0  0  0  0  0  0
    1.4289    0.0000    0.0000 C   0  0  0  0  0  0  0  0  0  0  0  0
    0.7145   -0.4125    0.0000 C   0  0  0  0  0  0  0  0  0  0  0  0
   -0.0000    0.0000    0.0000 C   0  0  0  0  0  0  0  0  0  0  0  0
   -0.0000    0.8250    0.0000 C   0  0  0  0  0  0  0  0  0  0  0  0
    0.7145    1.2375    0.0000 C   0  0  0  0  0  0  0  0  0  0  0  0
    0.7145    2.0625    0.0000 C   0  0  0  0  0  0  0  0  0  0  0  0
    1.4289    2.4750    0.0000 O   0  0  0  0  0  0  0  0  0  0  0  0
    0.0000    2.4750    0.0000 O   0  0  0  0  0  0  0  0  0  0  0  0
   -0.7145    1.2375    0.0000 O   0  0  0  0  0  0  0  0  0  0  0  0
   -1.4289    0.8250    0.0000 C   0  0  0  0  0  0  0  0  0  0  0  0
   -2.1434    1.2375    0.0000 C   0  0  0  0  0  0  0  0  0  0  0  0
   -1.4289    0.0000    0.0000 O   0  0  0  0  0  0  0  0  0  0  0  0
  1  2  2  0  0  0  0
  2  3  1  0  0  0  0
  3  4  2  0  0  0  0
  4  5  1  0  0  0  0
  5  6  2  0  0  0  0
  1  6  1  0  0  0  0
  6  7  1  0  0  0  0
  7  8  1  0  0  0  0
  7  9  2  0  0  0  0
  5 10  1  0  0  0  0
 10 11  1  0  0  0  0
 11 12  1  0  0  0  0
 11 13  2  0  0  0  0
M  END
>  <Name>
Acetylsalicylic acid

>  <CAS>
50-78-2

>  <Formula>
C9H8O4

>  <MolWt>
180.16 

>  <Bioactivity>
Aspirin (Acetylsalicylic acid) is a potent and selective inhibitor of cyclooxygenase (COX) with a broad range of pharmacological activities including anti-inflammation and pain relief. Multiple studies have accumulated sufficient evidence to establish the association between the use of aspirin and a reduced risk of cancers including prostate cancer, breast cancer, colorectal cancer, endometrial cancer, and ovarian cancer. Aspirin suppresses ovarian cancer cells harboring COX-1 by acting as histone deacetylase inhibitors to up-regulate cell cycle arrest protein p21. Aspirin also inhibits the expression of COX-2 in human umbilical vein endothelial cells and neonatal rat ventricular cardiomyocytes resulting in reduced PG production and the down-regulation of ERK and NF-KB respectively.

>  <Pathways>
Immunology/Inflammation

>  <Target>
NF-?B antagonist

>  <Receptor>
NF-?B

>  <Reference>
1. Kopp E, et al. Science, 1994, 265(5174), 956-959.

$$$$
T0926
  Mrv1561503291623562D          

 13 12  0  0  0  0            999 V2000
    5.6645    3.2704    0.0000 C   0  0  0  0  0  0  0  0  0  0  0  0
    4.9500    2.8579    0.0000 C   0  0  0  0  0  0  0  0  0  0  0  0
    4.2355    3.2704    0.0000 O   0  0  0  0  0  0  0  0  0  0  0  0
    4.9500    2.0329    0.0000 O   0  0  0  0  0  0  0  0  0  0  0  0
    6.3789    2.8579    0.0000 C   0  0  0  0  0  0  0  0  0  0  0  0
    7.0934    3.2704    0.0000 C   0  0  0  0  0  0  0  0  0  0  0  0
    7.8079    2.8579    0.0000 C   0  0  0  0  0  0  0  0  0  0  0  0
    8.5224    3.2704    0.0000 C   0  0  0  0  0  0  0  0  0  0  0  0
    9.2368    2.8579    0.0000 C   0  0  0  0  0  0  0  0  0  0  0  0
    9.9513    3.2704    0.0000 C   0  0  0  0  0  0  0  0  0  0  0  0
   10.6658    2.8579    0.0000 C   0  0  0  0  0  0  0  0  0  0  0  0
   11.3802    3.2704    0.0000 O   0  0  0  0  0  0  0  0  0  0  0  0
   10.6658    2.0329    0.0000 O   0  0  0  0  0  0  0  0  0  0  0  0
  1  2  1  0  0  0  0
  2  3  1  0  0  0  0
  2  4  2  0  0  0  0
  1  5  1  0  0  0  0
  5  6  1  0  0  0  0
  6  7  1  0  0  0  0
  7  8  1  0  0  0  0
  8  9  1  0  0  0  0
  9 10  1  0  0  0  0
 10 11  1  0  0  0  0
 11 12  1  0  0  0  0
 11 13  2  0  0  0  0
M  END
>  <Name>
Azelaic acid

>  <CAS>
123-99-9

>  <Formula>
C9H16O4

>  <MolWt>
188.22 

>  <Bioactivity>
Azelaic acid is a saturated dicarboxylic acid found naturally in wheat, rye, and barley. It is a natural substance that is produced by Malassezia furfur (also known as Pityrosporum ovale), a yeast that lives on normal skin. It is effective against a number of skin conditions, such as mild to moderate acne, when applied topically in a cream formulation of 20%. It works in part by stopping the growth of skin bacteria that cause acne, and by keeping skin pores clear. Azelaic acid's antimicrobial action may be attributable to inhibition of microbial cellular protein synthesis.  

>  <Pathways>
DNA Damage/DNA Repair; Enzyme

>  <Target>
DNA synthesis inhibitor;ThxR inhibitor

>  <Receptor>
DNA polymerase I;ThxR

>  <Reference>
1. Stamatiadis D, et al. Br J Dermatol. 1988 Nov;119(5):627-32. 

$$$$
T0407
  Mrv1561503291623562D          

 13 14  0  0  0  0            999 V2000
   -0.6078    1.1759    0.0000 C   0  0  0  0  0  0  0  0  0  0  0  0
   -1.3222    0.7634    0.0000 C   0  0  0  0  0  0  0  0  0  0  0  0
   -1.3222   -0.0616    0.0000 N   0  0  0  0  0  0  0  0  0  0  0  0
   -0.6548   -0.5465    0.0000 N   0  0  0  0  0  0  0  0  0  0  0  0
   -0.9097   -1.3312    0.0000 C   0  0  0  0  0  0  0  0  0  0  0  0
   -0.4248   -1.9986    0.0000 C   0  0  0  0  0  0  0  0  0  0  0  0
   -1.7347   -1.3312    0.0000 C   0  0  0  0  0  0  0  0  0  0  0  0
   -1.9897   -0.5465    0.0000 C   0  0  0  0  0  0  0  0  0  0  0  0
   -2.7743   -0.2916    0.0000 O   0  0  0  0  0  0  0  0  0  0  0  0
   -2.0367    1.1759    0.0000 C   0  0  0  0  0  0  0  0  0  0  0  0
   -2.0367    2.0009    0.0000 C   0  0  0  0  0  0  0  0  0  0  0  0
   -1.3222    2.4134    0.0000 C   0  0  0  0  0  0  0  0  0  0  0  0
   -0.6078    2.0009    0.0000 C   0  0  0  0  0  0  0  0  0  0  0  0
  1  2  2  0  0  0  0
  2  3  1  0  0  0  0
  3  4  1  0  0  0  0
  4  5  2  0  0  0  0
  5  6  1  0  0  0  0
  5  7  1  0  0  0  0
  7  8  1  0  0  0  0
  3  8  1  0  0  0  0
  8  9  2  0  0  0  0
  2 10  1  0  0  0  0
 10 11  2  0  0  0  0
 11 12  1  0  0  0  0
 12 13  2  0  0  0  0
  1 13  1  0  0  0  0
M  END
>  <Name>
Edaravone

>  <CAS>
89-25-8

>  <Formula>
C10H10N2O

>  <MolWt>
174.20 

>  <Bioactivity>
A radical scavenger and antioxidant which is able to protect against the effects of ischemia, probably by inhibiting the lipoxygenase system. Protects against MPTP-induced neurotoxicity.

>  <Pathways>
Immunology/Inflammation

>  <Target>
ROS inhibitor

>  <Receptor>
Free radical scavengers

>  <Reference>
1. Yoshida H, et al. CNS Drug Rev, 2006, 12(1), 9-20.

$$$$
134-62-3
  Mrv1561503291623562D          

 14 14  0  0  0  0            999 V2000
    1.4289    0.8250    0.0000 C   0  0  0  0  0  0  0  0  0  0  0  0
    1.4289    0.0000    0.0000 C   0  0  0  0  0  0  0  0  0  0  0  0
    2.1434   -0.4125    0.0000 C   0  0  0  0  0  0  0  0  0  0  0  0
    2.8579    0.0000    0.0000 N   0  0  0  0  0  0  0  0  0  0  0  0
    3.5724   -0.4125    0.0000 C   0  0  0  0  0  0  0  0  0  0  0  0
    4.2868    0.0000    0.0000 C   0  0  0  0  0  0  0  0  0  0  0  0
    2.8579    0.8250    0.0000 C   0  0  0  0  0  0  0  0  0  0  0  0
    3.5724    1.2375    0.0000 C   0  0  0  0  0  0  0  0  0  0  0  0
    2.1434   -1.2375    0.0000 O   0  0  0  0  0  0  0  0  0  0  0  0
    0.7145   -0.4125    0.0000 C   0  0  0  0  0  0  0  0  0  0  0  0
   -0.0000    0.0000    0.0000 C   0  0  0  0  0  0  0  0  0  0  0  0
   -0.0000    0.8250    0.0000 C   0  0  0  0  0  0  0  0  0  0  0  0
    0.7145    1.2375    0.0000 C   0  0  0  0  0  0  0  0  0  0  0  0
    0.7145    2.0625    0.0000 C   0  0  0  0  0  0  0  0  0  0  0  0
  1  2  2  0  0  0  0
  2  3  1  0  0  0  0
  3  4  1  0  0  0  0
  4  5  1  0  0  0  0
  5  6  1  0  0  0  0
  4  7  1  0  0  0  0
  7  8  1  0  0  0  0
  3  9  2  0  0  0  0
  2 10  1  0  0  0  0
 10 11  2  0  0  0  0
 11 12  1  0  0  0  0
 12 13  2  0  0  0  0
  1 13  1  0  0  0  0
 13 14  1  0  0  0  0
M  END
>  <Name>
Delphene

>  <CAS>
134-62-3

>  <Formula>
C12H17NO

>  <MolWt>
191.27 

>  <Bioactivity>
A compound used as a topical insect repellent that may cause irritation to eyes and mucous membranes, but not to the skin. 

>  <Pathways>
Neuroscience

>  <Target>
AChE inhibitor

>  <Receptor>
AChE

>  <Reference>
1. Xu P, et al. Proc Natl Acad Sci U S A. 2014 Nov 18;111(46):16592-7. 

$$$$
T0927
  Mrv1561503291623562D          

 14 14  0  0  0  0            999 V2000
    0.7145   -0.4125    0.0000 C   0  0  0  0  0  0  0  0  0  0  0  0
   -0.0000   -0.0000    0.0000 C   0  0  0  0  0  0  0  0  0  0  0  0
   -0.0000    0.8250    0.0000 C   0  0  0  0  0  0  0  0  0  0  0  0
    0.7145    1.2375    0.0000 C   0  0  0  0  0  0  0  0  0  0  0  0
    1.4289    0.8250    0.0000 C   0  0  0  0  0  0  0  0  0  0  0  0
    1.4289   -0.0000    0.0000 C   0  0  0  0  0  0  0  0  0  0  0  0
    2.1434   -0.4125    0.0000 C   0  0  0  0  0  0  0  0  0  0  0  0
    2.8579   -0.0000    0.0000 O   0  0  0  0  0  0  0  0  0  0  0  0
    3.5724   -0.4125    0.0000 C   0  0  0  0  0  0  0  0  0  0  0  0
    4.2868   -0.0000    0.0000 C   0  0  0  0  0  0  0  0  0  0  0  0
    5.0013   -0.4125    0.0000 C   0  0  0  0  0  0  0  0  0  0  0  0
    5.7158   -0.0000    0.0000 C   0  0  0  0  0  0  0  0  0  0  0  0
    2.1434   -1.2375    0.0000 O   0  0  0  0  0  0  0  0  0  0  0  0
   -0.7145    1.2375    0.0000 O   0  0  0  0  0  0  0  0  0  0  0  0
  1  2  2  0  0  0  0
  2  3  1  0  0  0  0
  3  4  2  0  0  0  0
  4  5  1  0  0  0  0
  5  6  2  0  0  0  0
  1  6  1  0  0  0  0
  6  7  1  0  0  0  0
  7  8  1  0  0  0  0
  8  9  1  0  0  0  0
  9 10  1  0  0  0  0
 10 11  1  0  0  0  0
 11 12  1  0  0  0  0
  7 13  2  0  0  0  0
  3 14  1  0  0  0  0
M  END
>  <Name>
Butylparaben

>  <CAS>
94-26-8

>  <Formula>
C11H14O3

>  <MolWt>
194.23 

>  <Bioactivity>
Butylparaben is a Standardized Chemical Allergen. The physiologic effect of butylparaben is by means of Increased Histamine Release and Cell-mediated Immunity. The chemical classification of butylparaben is Allergens.

>  <Pathways>
Microbiology & Virology

>  <Target>
Antibacterial

>  <Receptor>
Others

>  <Reference>
1. Int J Toxicol. 2008;27 Suppl 4:1-82. 

$$$$
90-80-2
  Mrv1561503291623562D          

 12 12  0  0  0  0            999 V2000
    0.7145    2.0625    0.0000 C   0  0  0  0  0  0  0  0  0  0  0  0
    0.7145    1.2375    0.0000 C   0  0  0  0  0  0  0  0  0  0  0  0
    1.4289    0.8250    0.0000 O   0  0  0  0  0  0  0  0  0  0  0  0
    1.4289    0.0000    0.0000 C   0  0  0  0  0  0  0  0  0  0  0  0
    0.7145   -0.4125    0.0000 C   0  0  0  0  0  0  0  0  0  0  0  0
    0.0000   -0.0000    0.0000 C   0  0  0  0  0  0  0  0  0  0  0  0
    0.0000    0.8250    0.0000 C   0  0  0  0  0  0  0  0  0  0  0  0
   -0.7145    1.2375    0.0000 O   0  0  0  0  0  0  0  0  0  0  0  0
   -0.7145   -0.4125    0.0000 O   0  0  0  0  0  0  0  0  0  0  0  0
    0.7145   -1.2375    0.0000 O   0  0  0  0  0  0  0  0  0  0  0  0
    2.1434   -0.4125    0.0000 O   0  0  0  0  0  0  0  0  0  0  0  0
   -0.0000    2.4750    0.0000 O   0  0  0  0  0  0  0  0  0  0  0  0
  1  2  1  0  0  0  0
  2  3  1  0  0  0  0
  3  4  1  0  0  0  0
  4  5  1  0  0  0  0
  5  6  1  0  0  0  0
  6  7  1  0  0  0  0
  2  7  1  0  0  0  0
  7  8  1  0  0  0  0
  6  9  1  0  0  0  0
  5 10  1  0  0  0  0
  4 11  2  0  0  0  0
  1 12  1  0  0  0  0
M  END
>  <Name>
Delta-Gluconolactone

>  <CAS>
90-80-2

>  <Formula>
C6H10O6

>  <MolWt>
178.14 

>  <Bioactivity>
Gluconolactone is a naturally-occurring food additive used as a sequestrant, an acidifier, or a curing, pickling, or leavening agent. It is a cyclic ester of D-gluconic acid. Pure gluconolactone is a white odorless crystalline powder.  

>  <Pathways>
Others

>  <Target>
Others

>  <Receptor>
LPH

>  <Reference>
1. Pocker Y, Green E. J Am Chem Soc. 1973 Jan 10;95(1):113-9.

$$$$
110-85-0
  Mrv1561503291623562D          

  6  6  0  0  0  0            999 V2000
    0.7145    1.2375    0.0000 C   0  0  0  0  0  0  0  0  0  0  0  0
    1.4289    0.8250    0.0000 N   0  0  0  0  0  0  0  0  0  0  0  0
    1.4289    0.0000    0.0000 C   0  0  0  0  0  0  0  0  0  0  0  0
    0.7145   -0.4125    0.0000 C   0  0  0  0  0  0  0  0  0  0  0  0
    0.0000   -0.0000    0.0000 N   0  0  0  0  0  0  0  0  0  0  0  0
    0.0000    0.8250    0.0000 C   0  0  0  0  0  0  0  0  0  0  0  0
  1  2  1  0  0  0  0
  2  3  1  0  0  0  0
  3  4  1  0  0  0  0
  4  5  1  0  0  0  0
  5  6  1  0  0  0  0
  1  6  1  0  0  0  0
M  END
>  <Name>
Antepan

>  <CAS>
110-85-0

>  <Formula>
C4H10N2

>  <MolWt>
86.14 

>  <Bioactivity>
Piperazine is an organic compound that consists of a six-membered ring containing two opposing nitrogen atoms. Piperazine exists as small alkaline deliquescent crystals with a saline taste. Piperazine was introduced to medicine as a solvent for uric acid. When taken into the body the drug is partly oxidized and partly eliminated unchanged. Outside the body, piperazine has a remarkable power to dissolve uric acid and producing a soluble urate, but in clinical experience it has not proved equally successful. Piperazine was first introduced as an anthelmintic in 1953. A large number of piperazine compounds have anthelmintic action. Their mode of action is generally by paralysing parasites, which allows the host body to easily remove or expel the invading organism.  

>  <Pathways>
Neuroscience

>  <Target>
GABAR agonist

>  <Receptor>
GABAR

>  <Reference>
1. Maskell PD, et al. Br J Pharmacol. 2001 Jan;132(1):205-12.

$$$$
T0405
  Mrv1561503291623562D          

 10 12  0  0  0  0            999 V2000
    0.1163   -2.0322    0.0000 C   0  0  0  0  0  0  0  0  0  0  0  0
    0.8517   -1.6585    0.0000 N   0  0  0  0  0  0  0  0  0  0  0  0
    0.8517   -0.9111    0.0000 C   0  0  0  0  0  0  0  0  0  0  0  0
    1.3012   -0.1208    0.0000 N   0  0  0  0  0  0  0  0  0  0  0  0
    0.5657   -0.4945    0.0000 C   0  0  0  0  0  0  0  0  0  0  0  0
    0.5657   -1.2419    0.0000 N   0  0  0  0  0  0  0  0  0  0  0  0
    1.3012   -1.6156    0.0000 C   0  0  0  0  0  0  0  0  0  0  0  0
    2.0368   -1.2419    0.0000 N   0  0  0  0  0  0  0  0  0  0  0  0
    1.5873   -2.0322    0.0000 C   0  0  0  0  0  0  0  0  0  0  0  0
    2.0368   -0.4945    0.0000 C   0  0  0  0  0  0  0  0  0  0  0  0
  1  2  1  0  0  0  0
  4 10  1  0  0  0  0
  3  4  1  0  0  0  0
  4  5  1  0  0  0  0
  2  9  1  0  0  0  0
  1  6  1  0  0  0  0
  6  7  1  0  0  0  0
  7  8  1  0  0  0  0
  8  9  1  0  0  0  0
  5  6  1  0  0  0  0
  8 10  1  0  0  0  0
  2  3  1  0  0  0  0
M  END
>  <Name>
Hexamethylenetetramine

>  <CAS>
100-97-0

>  <Formula>
C6H12N4

>  <MolWt>
140.19 

>  <Bioactivity>
Methenamine is an antibiotic used for the treatment of urinary tract infection.

>  <Pathways>
Microbiology & Virology

>  <Target>
Antibiotic

>  <Receptor>
Others

>  <Reference>
1. Musher DM, et al. Antimicrob Agents Chemother, 1974, 6(6), 708-711.

$$$$
103-84-4
  Mrv1561503291623562D          

 10 10  0  0  0  0            999 V2000
    1.4289    0.8250    0.0000 C   0  0  0  0  0  0  0  0  0  0  0  0
    1.4289    0.0000    0.0000 C   0  0  0  0  0  0  0  0  0  0  0  0
    0.7145   -0.4125    0.0000 C   0  0  0  0  0  0  0  0  0  0  0  0
   -0.0000    0.0000    0.0000 C   0  0  0  0  0  0  0  0  0  0  0  0
   -0.0000    0.8250    0.0000 C   0  0  0  0  0  0  0  0  0  0  0  0
    0.7145    1.2375    0.0000 C   0  0  0  0  0  0  0  0  0  0  0  0
    0.7145    2.0625    0.0000 N   0  0  0  0  0  0  0  0  0  0  0  0
    1.4289    2.4750    0.0000 C   0  0  0  0  0  0  0  0  0  0  0  0
    1.4289    3.3000    0.0000 C   0  0  0  0  0  0  0  0  0  0  0  0
    2.1434    2.0625    0.0000 O   0  0  0  0  0  0  0  0  0  0  0  0
  1  2  2  0  0  0  0
  2  3  1  0  0  0  0
  3  4  2  0  0  0  0
  4  5  1  0  0  0  0
  5  6  2  0  0  0  0
  1  6  1  0  0  0  0
  6  7  1  0  0  0  0
  7  8  1  0  0  0  0
  8  9  1  0  0  0  0
  8 10  2  0  0  0  0
M  END
>  <Name>
Acetanilide

>  <CAS>
103-84-4

>  <Formula>
C8H9NO

>  <MolWt>
135.16 

>  <Bioactivity>
Acetanilide is an aniline derivative and has possess analgesic.

>  <Pathways>
Others

>  <Target>
Others

>  <Receptor>
Others

>  <Reference>
1. Bertolini A, et al. CNS Drug Rev. 2006 Fall-Winter;12(3-4):250-75.

$$$$
100-51-6
  Mrv1561503291623562D          

  8  8  0  0  0  0            999 V2000
    1.4289    0.8250    0.0000 C   0  0  0  0  0  0  0  0  0  0  0  0
    1.4289    0.0000    0.0000 C   0  0  0  0  0  0  0  0  0  0  0  0
    0.7145   -0.4125    0.0000 C   0  0  0  0  0  0  0  0  0  0  0  0
   -0.0000    0.0000    0.0000 C   0  0  0  0  0  0  0  0  0  0  0  0
   -0.0000    0.8250    0.0000 C   0  0  0  0  0  0  0  0  0  0  0  0
    0.7145    1.2375    0.0000 C   0  0  0  0  0  0  0  0  0  0  0  0
    0.7145    2.0625    0.0000 C   0  0  0  0  0  0  0  0  0  0  0  0
    0.0000    2.4750    0.0000 O   0  0  0  0  0  0  0  0  0  0  0  0
  1  2  2  0  0  0  0
  2  3  1  0  0  0  0
  3  4  2  0  0  0  0
  4  5  1  0  0  0  0
  5  6  2  0  0  0  0
  1  6  1  0  0  0  0
  6  7  1  0  0  0  0
  7  8  1  0  0  0  0
M  END
>  <Name>
Benzyl alcohol

>  <CAS>
100-51-6

>  <Formula>
C7H8O

>  <MolWt>
108.14 

>  <Bioactivity>
A colorless liquid with a sharp burning taste and slight odor. It is used as a local anesthetic and to reduce pain associated with LIDOCAINE injection. Also, it is used in the manufacture of other benzyl compounds, as a pharmaceutic aid, and in perfumery and flavoring. 

>  <Pathways>
Others

>  <Target>
Others

>  <Receptor>
ALDH

>  <Reference>
1. Taylor PM, et al. J Feline Med Surg. 2012 Aug;14(8):516-26.

$$$$
T0733
  Mrv1561503291623562D          

  8  8  0  0  0  0            999 V2000
    1.4289   -0.0000    0.0000 C   0  0  0  0  0  0  0  0  0  0  0  0
    0.7145   -0.4125    0.0000 C   0  0  0  0  0  0  0  0  0  0  0  0
   -0.0000   -0.0000    0.0000 C   0  0  0  0  0  0  0  0  0  0  0  0
   -0.0000    0.8250    0.0000 C   0  0  0  0  0  0  0  0  0  0  0  0
    0.7145    1.2375    0.0000 C   0  0  0  0  0  0  0  0  0  0  0  0
    1.4289    0.8250    0.0000 C   0  0  0  0  0  0  0  0  0  0  0  0
    0.7145    2.0625    0.0000 Cl  0  0  0  0  0  0  0  0  0  0  0  0
    0.7145   -1.2375    0.0000 O   0  0  0  0  0  0  0  0  0  0  0  0
  1  2  2  0  0  0  0
  2  3  1  0  0  0  0
  3  4  2  0  0  0  0
  4  5  1  0  0  0  0
  5  6  2  0  0  0  0
  1  6  1  0  0  0  0
  5  7  1  0  0  0  0
  2  8  1  0  0  0  0
M  END
>  <Name>
4-Chlorophenol

>  <CAS>
106-48-9

>  <Formula>
C6H5ClO

>  <MolWt>
128.56 

>  <Bioactivity>
Chlorophenols are commonly used as pesticides, herbicides, and disinfectants.

>  <Pathways>
Microbiology & Virology

>  <Target>
Antibacterial

>  <Receptor>
Others

>  <Reference>
1. Wei D, et al. J Hazard Mater. 2015 May 30;289:101-7.

$$$$
T0931
  Mrv1561503291623562D          

  8  8  0  0  0  0            999 V2000
    1.4289    0.8250    0.0000 C   0  0  0  0  0  0  0  0  0  0  0  0
    1.4289    0.0000    0.0000 C   0  0  0  0  0  0  0  0  0  0  0  0
    2.1434   -0.4125    0.0000 O   0  0  0  0  0  0  0  0  0  0  0  0
    0.7145   -0.4125    0.0000 C   0  0  0  0  0  0  0  0  0  0  0  0
   -0.0000    0.0000    0.0000 C   0  0  0  0  0  0  0  0  0  0  0  0
   -0.0000    0.8250    0.0000 C   0  0  0  0  0  0  0  0  0  0  0  0
    0.7145    1.2375    0.0000 C   0  0  0  0  0  0  0  0  0  0  0  0
    0.7145    2.0625    0.0000 O   0  0  0  0  0  0  0  0  0  0  0  0
  1  2  2  0  0  0  0
  2  3  1  0  0  0  0
  2  4  1  0  0  0  0
  4  5  2  0  0  0  0
  5  6  1  0  0  0  0
  6  7  2  0  0  0  0
  1  7  1  0  0  0  0
  7  8  1  0  0  0  0
M  END
>  <Name>
Resorcine

>  <CAS>
108-46-3

>  <Formula>
C6H6O2

>  <MolWt>
110.11 

>  <Bioactivity>
Resorcinol crystallizes from benzene as colorless needles that are readily soluble in water, alcohol, and ether, but insoluble in chloroform and carbon disulfide. It reduces Fehling's solution and ammoniacal silver solutions. It does not form a precipitate with lead acetate solution, as does the isomeric pyrocatechol.

>  <Pathways>
Microbiology & Virology

>  <Target>
Antibacterial

>  <Receptor>
Others

>  <Reference>
1. Stratford MR, et al. Bioorg Med Chem. 2013 Mar 1;21(5):1166-73. 

$$$$
T0935
  Mrv1561503291623562D          

 16 16  0  0  0  0            999 V2000
    1.4289    0.8250    0.0000 C   0  0  0  0  0  0  0  0  0  0  0  0
    1.4289    0.0000    0.0000 C   0  0  0  0  0  0  0  0  0  0  0  0
    0.7145   -0.4125    0.0000 C   0  0  0  0  0  0  0  0  0  0  0  0
   -0.0000    0.0000    0.0000 C   0  0  0  0  0  0  0  0  0  0  0  0
   -0.0000    0.8250    0.0000 C   0  0  0  0  0  0  0  0  0  0  0  0
    0.7145    1.2375    0.0000 C   0  0  0  0  0  0  0  0  0  0  0  0
    0.7145    2.0625    0.0000 C   0  0  0  0  0  0  0  0  0  0  0  0
    0.7145    2.8875    0.0000 C   0  0  0  0  0  0  0  0  0  0  0  0
   -0.1105    2.0625    0.0000 C   0  0  0  0  0  0  0  0  0  0  0  0
    1.5395    2.0625    0.0000 C   0  0  0  0  0  0  0  0  0  0  0  0
   -0.7145    1.2375    0.0000 O   0  0  0  0  0  0  0  0  0  0  0  0
   -0.7145   -0.4125    0.0000 C   0  0  0  0  0  0  0  0  0  0  0  0
   -1.4289   -0.8250    0.0000 C   0  0  0  0  0  0  0  0  0  0  0  0
   -1.1270    0.3020    0.0000 C   0  0  0  0  0  0  0  0  0  0  0  0
   -0.3020   -1.1270    0.0000 C   0  0  0  0  0  0  0  0  0  0  0  0
    2.1434   -0.4125    0.0000 C   0  0  0  0  0  0  0  0  0  0  0  0
  1  2  2  0  0  0  0
  2  3  1  0  0  0  0
  3  4  2  0  0  0  0
  4  5  1  0  0  0  0
  5  6  2  0  0  0  0
  1  6  1  0  0  0  0
  6  7  1  0  0  0  0
  7  8  1  0  0  0  0
  7  9  1  0  0  0  0
  7 10  1  0  0  0  0
  5 11  1  0  0  0  0
  4 12  1  0  0  0  0
 12 13  1  0  0  0  0
 12 14  1  0  0  0  0
 12 15  1  0  0  0  0
  2 16  1  0  0  0  0
M  END
>  <Name>
BHT FCC/NF

>  <CAS>
128-37-0

>  <Formula>
C15H24O

>  <MolWt>
220.35 

>  <Bioactivity>
BHT is also used as an antioxidant additive in such diverse products as cosmetics, pharmaceuticals, rubber, electrical transformer oil.

>  <Pathways>
Immunology/Inflammation

>  <Target>
ROS inhibitor

>  <Receptor>
Antioxidants

>  <Reference>
1. Ma Y, et al. J Photochem Photobiol B. 2013 Sep 5;126:112-8. 

$$$$
65-45-2
  Mrv1561503291623562D          

 10 10  0  0  0  0            999 V2000
    1.4289    0.8250    0.0000 C   0  0  0  0  0  0  0  0  0  0  0  0
    1.4289    0.0000    0.0000 C   0  0  0  0  0  0  0  0  0  0  0  0
    0.7145   -0.4125    0.0000 C   0  0  0  0  0  0  0  0  0  0  0  0
   -0.0000    0.0000    0.0000 C   0  0  0  0  0  0  0  0  0  0  0  0
   -0.0000    0.8250    0.0000 C   0  0  0  0  0  0  0  0  0  0  0  0
    0.7145    1.2375    0.0000 C   0  0  0  0  0  0  0  0  0  0  0  0
    0.7145    2.0625    0.0000 C   0  0  0  0  0  0  0  0  0  0  0  0
    0.0000    2.4750    0.0000 N   0  0  0  0  0  0  0  0  0  0  0  0
    1.4289    2.4750    0.0000 O   0  0  0  0  0  0  0  0  0  0  0  0
   -0.7145    1.2375    0.0000 O   0  0  0  0  0  0  0  0  0  0  0  0
  1  2  2  0  0  0  0
  2  3  1  0  0  0  0
  3  4  2  0  0  0  0
  4  5  1  0  0  0  0
  5  6  2  0  0  0  0
  1  6  1  0  0  0  0
  6  7  1  0  0  0  0
  7  8  1  0  0  0  0
  7  9  2  0  0  0  0
  5 10  1  0  0  0  0
M  END
>  <Name>
Salicylamide

>  <CAS>
65-45-2

>  <Formula>
C7H7NO2

>  <MolWt>
137.14 

>  <Bioactivity>
Salicylamide is the common name for the substance o-hydroxybenzamide, or amide of salicyl. Salicylamide is a non-prescription drug with analgesic and antipyretic properties. Its medicinal uses are similar to those of aspirin. Salicylamide is used in combination with both aspirin and caffeine in the over-the-counter pain remedies 

>  <Pathways>
Neuroscience

>  <Target>
COX inhibitor

>  <Receptor>
Prostaglandin G/H synthase1/2

>  <Reference>
1. Manin AN, et al. J Phys Chem B. 2014 Jun 19;118(24):6803-14. 

$$$$
T0011
  Mrv1561503291623562D          

  9  9  0  0  0  0            999 V2000
    0.0000    0.8250    0.0000 C   0  0  0  0  0  0  0  0  0  0  0  0
    0.7145    1.2375    0.0000 C   0  0  0  0  0  0  0  0  0  0  0  0
    1.4289    0.8250    0.0000 C   0  0  0  0  0  0  0  0  0  0  0  0
    1.4289   -0.0000    0.0000 C   0  0  0  0  0  0  0  0  0  0  0  0
    0.7145   -0.4125    0.0000 C   0  0  0  0  0  0  0  0  0  0  0  0
   -0.0000    0.0000    0.0000 C   0  0  0  0  0  0  0  0  0  0  0  0
    0.7145    2.0625    0.0000 C   0  0  0  0  0  0  0  0  0  0  0  0
    1.4289    2.4750    0.0000 C   0  0  0  0  0  0  0  0  0  0  0  0
    1.4289    3.3000    0.0000 O   0  0  0  0  0  0  0  0  0  0  0  0
  1  2  2  0  0  0  0
  2  3  1  0  0  0  0
  3  4  2  0  0  0  0
  4  5  1  0  0  0  0
  5  6  2  0  0  0  0
  1  6  1  0  0  0  0
  2  7  1  0  0  0  0
  7  8  1  0  0  0  0
  8  9  1  0  0  0  0
M  END
>  <Name>
Phenethyl alcohol

>  <CAS>
60-12-8

>  <Formula>
C8H10O

>  <MolWt>
122.16 

>  <Bioactivity>
An antimicrobial, antiseptic, and disinfectant that is used also as an aromatic essence and preservative in pharmaceutics and perfumery.

>  <Pathways>
Microbiology & Virology

>  <Target>
Antibiotic

>  <Receptor>
Others

>  <Reference>
1. Lingappa BT, et al. Science. 1969 Jan 10;163(3863):192-4.

$$$$
3820-67-5
  Mrv1561503291623562D          

 26 28  0  0  0  0            999 V2000
   -0.7145    1.2375    0.0000 C   0  0  0  0  0  0  0  0  0  0  0  0
   -1.4289    1.6500    0.0000 C   0  0  0  0  0  0  0  0  0  0  0  0
   -2.1434    1.2375    0.0000 C   0  0  0  0  0  0  0  0  0  0  0  0
   -2.8579    1.6500    0.0000 C   0  0  0  0  0  0  0  0  0  0  0  0
   -2.8579    2.4750    0.0000 C   0  0  0  0  0  0  0  0  0  0  0  0
   -2.1434    2.8875    0.0000 N   0  0  0  0  0  0  0  0  0  0  0  0
   -1.4289    2.4750    0.0000 C   0  0  0  0  0  0  0  0  0  0  0  0
   -0.7145    2.8875    0.0000 C   0  0  0  0  0  0  0  0  0  0  0  0
   -0.0000    2.4750    0.0000 C   0  0  0  0  0  0  0  0  0  0  0  0
   -0.0000    1.6500    0.0000 C   0  0  0  0  0  0  0  0  0  0  0  0
    0.7145    2.8875    0.0000 Cl  0  0  0  0  0  0  0  0  0  0  0  0
   -2.1434    0.4125    0.0000 N   0  0  0  0  0  0  0  0  0  0  0  0
   -2.8579    0.0000    0.0000 C   0  0  0  0  0  0  0  0  0  0  0  0
   -2.8579   -0.8250    0.0000 C   0  0  0  0  0  0  0  0  0  0  0  0
   -2.1434   -1.2375    0.0000 C   0  0  0  0  0  0  0  0  0  0  0  0
   -1.4289   -0.8250    0.0000 O   0  0  0  0  0  0  0  0  0  0  0  0
   -0.7145   -1.2375    0.0000 C   0  0  0  0  0  0  0  0  0  0  0  0
   -0.0000   -0.8250    0.0000 C   0  0  0  0  0  0  0  0  0  0  0  0
    0.7145   -1.2375    0.0000 C   0  0  0  0  0  0  0  0  0  0  0  0
    1.4289   -0.8250    0.0000 O   0  0  0  0  0  0  0  0  0  0  0  0
   -0.0000    0.0000    0.0000 O   0  0  0  0  0  0  0  0  0  0  0  0
   -2.1434   -2.0625    0.0000 O   0  0  0  0  0  0  0  0  0  0  0  0
   -3.5724   -1.2375    0.0000 C   0  0  0  0  0  0  0  0  0  0  0  0
   -4.2868   -0.8250    0.0000 C   0  0  0  0  0  0  0  0  0  0  0  0
   -4.2868    0.0000    0.0000 C   0  0  0  0  0  0  0  0  0  0  0  0
   -3.5724    0.4125    0.0000 C   0  0  0  0  0  0  0  0  0  0  0  0
  1  2  2  0  0  0  0
  2  3  1  0  0  0  0
  3  4  2  0  0  0  0
  4  5  1  0  0  0  0
  5  6  2  0  0  0  0
  6  7  1  0  0  0  0
  2  7  1  0  0  0  0
  7  8  2  0  0  0  0
  8  9  1  0  0  0  0
  9 10  2  0  0  0  0
  1 10  1  0  0  0  0
  9 11  1  0  0  0  0
  3 12  1  0  0  0  0
 12 13  1  0  0  0  0
 13 14  2  0  0  0  0
 14 15  1  0  0  0  0
 15 16  1  0  0  0  0
 16 17  1  0  0  0  0
 17 18  1  0  0  0  0
 18 19  1  0  0  0  0
 19 20  1  0  0  0  0
 18 21  1  0  0  0  0
 15 22  2  0  0  0  0
 14 23  1  0  0  0  0
 23 24  2  0  0  0  0
 24 25  1  0  0  0  0
 25 26  2  0  0  0  0
 13 26  1  0  0  0  0
M  END
>  <Name>
Glafenine

>  <CAS>
3820-67-5

>  <Formula>
C19H17ClN2O4

>  <MolWt>
372.80 

>  <Bioactivity>
An anthranilic acid derivative with analgesic properties used for the relief of all types of pain. 

>  <Pathways>
Neuroscience

>  <Target>
COX inhibitor

>  <Receptor>
Prostaglandin G/H synthase

>  <Reference>
1. Kleinknecht D, et al. Clin Nephrol. 1986 Jun;25(6):275-81.

$$$$
141-01-5
  Mrv1561503291623562D          

  9  7  0  0  0  0            999 V2000
    0.8250   -1.4289    0.0000 O   0  0  0  0  0  0  0  0  0  0  0  0
    1.2375   -0.7145    0.0000 C   0  0  0  0  0  0  0  0  0  0  0  0
    2.0625   -0.7145    0.0000 O   0  5  0  0  0  0  0  0  0  0  0  0
    0.8250    0.0000    0.0000 C   0  0  0  0  0  0  0  0  0  0  0  0
    0.0000    0.0000    0.0000 C   0  0  0  0  0  0  0  0  0  0  0  0
   -0.4125   -0.7145    0.0000 C   0  0  0  0  0  0  0  0  0  0  0  0
   -1.2375   -0.7145    0.0000 O   0  0  0  0  0  0  0  0  0  0  0  0
    0.0000   -1.4289    0.0000 O   0  5  0  0  0  0  0  0  0  0  0  0
    2.8875   -0.7145    0.0000 Fe  0  2  0  0  0  0  0  0  0  0  0  0
  1  2  2  0  0  0  0
  2  3  1  0  0  0  0
  2  4  1  0  0  0  0
  4  5  2  0  0  0  0
  5  6  1  0  0  0  0
  6  7  2  0  0  0  0
  6  8  1  0  0  0  0
M  CHG  3   3  -1   8  -1   9   2
M  END
>  <Name>
Ferrous fumarate

>  <CAS>
141-01-5

>  <Formula>
C4H2FeO4

>  <MolWt>
169.90 

>  <Bioactivity>
Iron(II) fumarate, also known as ferrous fumarate, is the iron(II) salt of fumaric acid, occurring as a reddish-orange powder, used to supplement iron intake. 

>  <Pathways>
Others

>  <Target>
Others

>  <Receptor>
Others

>  <Reference>
1. García-Casal MN, Leets I. J Food Sci. 2014 Apr;79(4):H706-12. 

$$$$
124-04-9
  Mrv1561503291623562D          

 10  9  0  0  0  0            999 V2000
    2.4750    1.4289    0.0000 C   0  0  0  0  0  0  0  0  0  0  0  0
    1.7605    1.8414    0.0000 C   0  0  0  0  0  0  0  0  0  0  0  0
    1.0461    1.4289    0.0000 O   0  0  0  0  0  0  0  0  0  0  0  0
    1.7605    2.6664    0.0000 O   0  0  0  0  0  0  0  0  0  0  0  0
    3.1895    1.8414    0.0000 C   0  0  0  0  0  0  0  0  0  0  0  0
    3.9039    1.4289    0.0000 C   0  0  0  0  0  0  0  0  0  0  0  0
    4.6184    1.8414    0.0000 C   0  0  0  0  0  0  0  0  0  0  0  0
    5.3329    1.4289    0.0000 C   0  0  0  0  0  0  0  0  0  0  0  0
    6.0474    1.8414    0.0000 O   0  0  0  0  0  0  0  0  0  0  0  0
    5.3329    0.6039    0.0000 O   0  0  0  0  0  0  0  0  0  0  0  0
  1  2  1  0  0  0  0
  2  3  1  0  0  0  0
  2  4  2  0  0  0  0
  1  5  1  0  0  0  0
  5  6  1  0  0  0  0
  6  7  1  0  0  0  0
  7  8  1  0  0  0  0
  8  9  1  0  0  0  0
  8 10  2  0  0  0  0
M  END
>  <Name>
Adipic acid

>  <CAS>
124-04-9

>  <Formula>
C6H10O4

>  <MolWt>
146.14 

>  <Bioactivity>
From an industrial perspective, it is the most important dicarboxylic acid, mainly as a precursor for the production of nylon.

>  <Pathways>
Others

>  <Target>
Others

>  <Receptor>
Others

>  <Reference>
1. Han L, et al. Sheng Wu Gong Cheng Xue Bao. 2013 Oct;29(10):1374-85.

$$$$
77-86-1
  Mrv1561503291623562D          

  8  7  0  0  0  0            999 V2000
    0.8250   -0.0000    0.0000 C   0  0  0  0  0  0  0  0  0  0  0  0
    1.5395    0.4125    0.0000 C   0  0  0  0  0  0  0  0  0  0  0  0
    2.2539    0.8250    0.0000 N   0  0  0  0  0  0  0  0  0  0  0  0
    1.9520   -0.3020    0.0000 C   0  0  0  0  0  0  0  0  0  0  0  0
    2.7770   -0.3020    0.0000 O   0  0  0  0  0  0  0  0  0  0  0  0
    1.1270    1.1270    0.0000 C   0  0  0  0  0  0  0  0  0  0  0  0
    0.3020    1.1270    0.0000 O   0  0  0  0  0  0  0  0  0  0  0  0
    0.1105    0.4125    0.0000 O   0  0  0  0  0  0  0  0  0  0  0  0
  1  2  1  0  0  0  0
  2  3  1  0  0  0  0
  2  4  1  0  0  0  0
  4  5  1  0  0  0  0
  2  6  1  0  0  0  0
  6  7  1  0  0  0  0
  1  8  1  0  0  0  0
M  END
>  <Name>
Trometamol

>  <CAS>
77-86-1

>  <Formula>
C4H11NO3

>  <MolWt>
121.14 

>  <Bioactivity>
Trometamol is a proton acceptor used to treat acidemia.

>  <Pathways>
Others

>  <Target>
Others

>  <Receptor>
Others

>  <Reference>
1. Holmdahl MH, et al. Acta Anaesthesiol Scand, 2000, 44(5), 524-527.

$$$$
57-10-3
  Mrv1561503291623562D          

 18 17  0  0  0  0            999 V2000
   15.0927    5.4138    0.0000 C   0  0  0  0  0  0  0  0  0  0  0  0
   14.3783    5.0013    0.0000 C   0  0  0  0  0  0  0  0  0  0  0  0
   13.6638    5.4138    0.0000 C   0  0  0  0  0  0  0  0  0  0  0  0
   12.9493    5.0013    0.0000 C   0  0  0  0  0  0  0  0  0  0  0  0
   12.2349    5.4138    0.0000 C   0  0  0  0  0  0  0  0  0  0  0  0
   11.5204    5.0013    0.0000 C   0  0  0  0  0  0  0  0  0  0  0  0
   10.8059    5.4138    0.0000 C   0  0  0  0  0  0  0  0  0  0  0  0
   10.0914    5.0013    0.0000 C   0  0  0  0  0  0  0  0  0  0  0  0
    9.3770    5.4138    0.0000 C   0  0  0  0  0  0  0  0  0  0  0  0
    8.6625    5.0013    0.0000 C   0  0  0  0  0  0  0  0  0  0  0  0
    7.9480    5.4138    0.0000 C   0  0  0  0  0  0  0  0  0  0  0  0
   15.8072    5.0013    0.0000 C   0  0  0  0  0  0  0  0  0  0  0  0
   16.5217    5.4138    0.0000 C   0  0  0  0  0  0  0  0  0  0  0  0
   17.2362    5.0013    0.0000 C   0  0  0  0  0  0  0  0  0  0  0  0
   17.9506    5.4138    0.0000 C   0  0  0  0  0  0  0  0  0  0  0  0
   18.6651    5.0013    0.0000 C   0  0  0  0  0  0  0  0  0  0  0  0
   19.3796    5.4138    0.0000 O   0  0  0  0  0  0  0  0  0  0  0  0
   18.6651    4.1763    0.0000 O   0  0  0  0  0  0  0  0  0  0  0  0
  1  2  1  0  0  0  0
  2  3  1  0  0  0  0
  3  4  1  0  0  0  0
  4  5  1  0  0  0  0
  5  6  1  0  0  0  0
  6  7  1  0  0  0  0
  7  8  1  0  0  0  0
  8  9  1  0  0  0  0
  9 10  1  0  0  0  0
 10 11  1  0  0  0  0
  1 12  1  0  0  0  0
 12 13  1  0  0  0  0
 13 14  1  0  0  0  0
 14 15  1  0  0  0  0
 15 16  1  0  0  0  0
 16 17  1  0  0  0  0
 16 18  2  0  0  0  0
M  END
>  <Name>
Palmitic acid

>  <CAS>
57-10-3

>  <Formula>
C16H32O2

>  <MolWt>
256.42 

>  <Bioactivity>
Extracted from Palm tree fruit;Store the product in sealed, cool and dry condition

>  <Pathways>
Others

>  <Target>
Others

>  <Receptor>
Others

>  <Reference>
1. Nagata Y, et al. Leuk Res. 2015 Jun;39(6):638-45. 

$$$$
486-66-8
  Mrv1561503291623562D          

 19 21  0  0  0  0            999 V2000
   -0.0000    0.0000    0.0000 C   0  0  0  0  0  0  0  0  0  0  0  0
   -0.7145   -0.4125    0.0000 C   0  0  0  0  0  0  0  0  0  0  0  0
   -0.7145   -1.2375    0.0000 C   0  0  0  0  0  0  0  0  0  0  0  0
   -0.0000   -1.6500    0.0000 C   0  0  0  0  0  0  0  0  0  0  0  0
    0.7145   -1.2375    0.0000 C   0  0  0  0  0  0  0  0  0  0  0  0
    0.7145   -0.4125    0.0000 C   0  0  0  0  0  0  0  0  0  0  0  0
    1.4289    0.0000    0.0000 C   0  0  0  0  0  0  0  0  0  0  0  0
    2.1434   -0.4125    0.0000 C   0  0  0  0  0  0  0  0  0  0  0  0
    2.1434   -1.2375    0.0000 C   0  0  0  0  0  0  0  0  0  0  0  0
    1.4289   -1.6500    0.0000 O   0  0  0  0  0  0  0  0  0  0  0  0
    2.8579    0.0000    0.0000 C   0  0  0  0  0  0  0  0  0  0  0  0
    2.8579    0.8250    0.0000 C   0  0  0  0  0  0  0  0  0  0  0  0
    3.5724    1.2375    0.0000 C   0  0  0  0  0  0  0  0  0  0  0  0
    4.2868    0.8250    0.0000 C   0  0  0  0  0  0  0  0  0  0  0  0
    5.0013    1.2375    0.0000 O   0  0  0  0  0  0  0  0  0  0  0  0
    4.2868   -0.0000    0.0000 C   0  0  0  0  0  0  0  0  0  0  0  0
    3.5724   -0.4125    0.0000 C   0  0  0  0  0  0  0  0  0  0  0  0
    1.4289    0.8250    0.0000 O   0  0  0  0  0  0  0  0  0  0  0  0
   -1.4289   -1.6500    0.0000 O   0  0  0  0  0  0  0  0  0  0  0  0
  1  2  2  0  0  0  0
  2  3  1  0  0  0  0
  3  4  2  0  0  0  0
  4  5  1  0  0  0  0
  5  6  2  0  0  0  0
  1  6  1  0  0  0  0
  6  7  1  0  0  0  0
  7  8  1  0  0  0  0
  8  9  2  0  0  0  0
  9 10  1  0  0  0  0
  5 10  1  0  0  0  0
  8 11  1  0  0  0  0
 11 12  2  0  0  0  0
 12 13  1  0  0  0  0
 13 14  2  0  0  0  0
 14 15  1  0  0  0  0
 14 16  1  0  0  0  0
 16 17  2  0  0  0  0
 11 17  1  0  0  0  0
  7 18  2  0  0  0  0
  3 19  1  0  0  0  0
M  END
>  <Name>
Daidzein

>  <CAS>
486-66-8

>  <Formula>
C15H10O4

>  <MolWt>
254.24 

>  <Bioactivity>
Daidzein is a natural isoflavone phytoestrogen found in Leguminosae, used as a component of foods and dietary supplements.

>  <Pathways>
Endocrinology/ Hormones

>  <Target>
Phytoestrogen

>  <Receptor>
Phytoestrogen

>  <Reference>
1. Feng G, et al. Int Immunopharmacol. 2015 Apr 15;26(2):392-400. 

$$$$
T2215
  Mrv1561503291623562D          

 14 14  0  0  0  0            999 V2000
    1.4289    0.8250    0.0000 C   0  0  0  0  0  0  0  0  0  0  0  0
    1.4289    0.0000    0.0000 C   0  0  0  0  0  0  0  0  0  0  0  0
    2.1434   -0.4125    0.0000 C   0  0  0  0  0  0  0  0  0  0  0  0
    2.1434   -1.2375    0.0000 C   0  0  0  0  0  0  0  0  0  0  0  0
    2.8579   -1.6500    0.0000 C   0  0  0  0  0  0  0  0  0  0  0  0
    2.8579   -2.4750    0.0000 O   0  0  0  0  0  0  0  0  0  0  0  0
    3.5724   -1.2375    0.0000 O   0  0  0  0  0  0  0  0  0  0  0  0
    0.7145   -0.4125    0.0000 C   0  0  0  0  0  0  0  0  0  0  0  0
   -0.0000    0.0000    0.0000 C   0  0  0  0  0  0  0  0  0  0  0  0
   -0.0000    0.8250    0.0000 C   0  0  0  0  0  0  0  0  0  0  0  0
    0.7145    1.2375    0.0000 C   0  0  0  0  0  0  0  0  0  0  0  0
    0.7145    2.0625    0.0000 O   0  0  0  0  0  0  0  0  0  0  0  0
    0.0000    2.4750    0.0000 C   0  0  0  0  0  0  0  0  0  0  0  0
   -0.7145    1.2375    0.0000 O   0  0  0  0  0  0  0  0  0  0  0  0
  1  2  2  0  0  0  0
  2  3  1  0  0  0  0
  3  4  2  0  0  0  0
  4  5  1  0  0  0  0
  5  6  1  0  0  0  0
  5  7  2  0  0  0  0
  2  8  1  0  0  0  0
  8  9  2  0  0  0  0
  9 10  1  0  0  0  0
 10 11  2  0  0  0  0
  1 11  1  0  0  0  0
 11 12  1  0  0  0  0
 12 13  1  0  0  0  0
 10 14  1  0  0  0  0
M  END
>  <Name>
Ferulic Acid

>  <CAS>
1135-24-6

>  <Formula>
C10H10O4

>  <MolWt>
194.19 

>  <Bioactivity>
Ferulic Acid is a hydroxycinnamic acid and a type of organic compound found in the Ferula assafoetida L. or Ligusticum chuanxiong.

>  <Pathways>
Angiogenesis

>  <Target>
FGFR inhibitor

>  <Receptor>
FGFR1

>  <Reference>
1. Yang GW, et al. Int J Mol Sci. 2015 Oct 12;16(10):24011-31.

$$$$
6155-35-7
  Mrv1561503291623562D          

 24 26  0  0  0  0            999 V2000
    2.3522    0.3352    0.0000 C   0  0  0  0  0  0  0  0  0  0  0  0
    2.0701    1.1104    0.0000 C   0  0  0  0  0  0  0  0  0  0  0  0
    2.8825    1.2537    0.0000 C   0  0  0  0  0  0  0  0  0  0  0  0
    1.3556    0.6979    0.0000 C   0  0  0  0  0  0  0  0  0  0  0  0
    0.6411    1.1104    0.0000 C   0  0  0  0  0  0  0  0  0  0  0  0
    0.6411    1.9354    0.0000 C   0  0  0  0  0  0  0  0  0  0  0  0
    1.3556    2.3479    0.0000 C   0  0  0  0  0  0  0  0  0  0  0  0
    2.0701    1.9354    0.0000 O   0  0  0  0  0  0  0  0  0  0  0  0
   -0.1435    2.1904    0.0000 S   0  0  0  0  0  0  0  0  0  0  0  0
   -0.6284    1.5229    0.0000 C   0  0  0  0  0  0  0  0  0  0  0  0
   -1.4534    1.5229    0.0000 N   0  0  0  0  0  0  0  0  0  0  0  0
   -1.8659    2.2374    0.0000 C   0  0  0  0  0  0  0  0  0  0  0  0
   -1.4534    2.9519    0.0000 O   0  0  0  0  0  0  0  0  0  0  0  0
   -2.6909    2.2374    0.0000 N   0  0  0  0  0  0  0  0  0  0  0  0
   -3.1034    2.9519    0.0000 C   0  0  0  0  0  0  0  0  0  0  0  0
   -3.9284    2.9519    0.0000 C   0  0  0  0  0  0  0  0  0  0  0  0
   -4.3409    3.6664    0.0000 C   0  0  0  0  0  0  0  0  0  0  0  0
   -3.9284    4.3808    0.0000 C   0  0  0  0  0  0  0  0  0  0  0  0
   -3.1034    4.3808    0.0000 C   0  0  0  0  0  0  0  0  0  0  0  0
   -2.6909    3.6664    0.0000 C   0  0  0  0  0  0  0  0  0  0  0  0
   -0.1435    0.8555    0.0000 C   0  0  0  0  0  0  0  0  0  0  0  0
   -0.3984    0.0709    0.0000 C   0  0  0  0  0  0  0  0  0  0  0  0
    0.1536   -0.5422    0.0000 N   0  0  0  0  0  0  0  0  0  0  0  0
   -1.2054   -0.1006    0.0000 O   0  0  0  0  0  0  0  0  0  0  0  0
  1  2  1  0  0  0  0
  2  3  1  0  0  0  0
  2  4  1  0  0  0  0
  4  5  1  0  0  0  0
  5  6  4  0  0  0  0
  6  7  1  0  0  0  0
  7  8  1  0  0  0  0
  2  8  1  0  0  0  0
  6  9  4  0  0  0  0
  9 10  4  0  0  0  0
 10 11  1  0  0  0  0
 11 12  1  0  0  0  0
 12 13  2  0  0  0  0
 12 14  1  0  0  0  0
 14 15  1  0  0  0  0
 15 16  4  0  0  0  0
 16 17  4  0  0  0  0
 17 18  4  0  0  0  0
 18 19  4  0  0  0  0
 19 20  4  0  0  0  0
 15 20  4  0  0  0  0
 10 21  4  0  0  0  0
  5 21  4  0  0  0  0
 21 22  1  0  0  0  0
 22 23  1  0  0  0  0
 22 24  2  0  0  0  0
M  END
>  <Name>
L-Rhamnose monohydrate

>  <CAS>
6155-35-7

>  <Formula>
C6H14O6

>  <MolWt>
182.17 

>  <Bioactivity>
Rhamnose (Rham) is a naturally occurring deoxy sugar. It can be classified as either a methyl-pentose or a 6-deoxy-hexose. Rhamnose occurs in nature in its L-form as L-rhamnose (6-deoxy-L-mannose).

>  <Pathways>
Others

>  <Target>
Others

>  <Receptor>
Others

>  <Reference>
1. Pardo E, Orejas M. Microb Cell Fact. 2014 Nov 22;13:161.

$$$$
6363-53-7
  Mrv1561503291623562D          

 24 23  0  0  0  0            999 V2000
   -2.0446   -0.6834    0.0000 C   0  0  0  0  0  0  0  0  0  0  0  0
   -1.6321    0.0311    0.0000 C   0  0  0  0  0  0  0  0  0  0  0  0
   -2.0446    0.7455    0.0000 C   0  0  0  0  0  0  0  0  0  0  0  0
   -1.6321    1.4600    0.0000 C   0  0  0  0  0  0  0  0  0  0  0  0
   -0.8071    1.4600    0.0000 C   0  0  0  0  0  0  0  0  0  0  0  0
   -0.3946    0.7455    0.0000 C   0  0  0  0  0  0  0  0  0  0  0  0
   -0.8071    0.0311    0.0000 O   0  0  0  0  0  0  0  0  0  0  0  0
    0.4304    0.7455    0.0000 O   0  0  0  0  0  0  0  0  0  0  0  0
    0.8429    0.0311    0.0000 C   0  0  0  0  0  0  0  0  0  0  0  0
    0.4304   -0.6834    0.0000 C   0  0  0  0  0  0  0  0  0  0  0  0
    0.8429   -1.3979    0.0000 C   0  0  0  0  0  0  0  0  0  0  0  0
    0.4304   -2.1123    0.0000 O   0  0  0  0  0  0  0  0  0  0  0  0
   -0.3946   -0.6834    0.0000 O   0  0  0  0  0  0  0  0  0  0  0  0
    1.6679    0.0311    0.0000 C   0  0  0  0  0  0  0  0  0  0  0  0
    2.0804   -0.6834    0.0000 C   0  0  0  0  0  0  0  0  0  0  0  0
    2.9054   -0.6834    0.0000 C   0  0  0  0  0  0  0  0  0  0  0  0
    3.3179   -1.3979    0.0000 O   0  0  0  0  0  0  0  0  0  0  0  0
    1.6679   -1.3979    0.0000 O   0  0  0  0  0  0  0  0  0  0  0  0
    2.0804    0.7455    0.0000 O   0  0  0  0  0  0  0  0  0  0  0  0
   -0.3946    2.1745    0.0000 O   0  0  0  0  0  0  0  0  0  0  0  0
   -2.0446    2.1745    0.0000 O   0  0  0  0  0  0  0  0  0  0  0  0
   -2.8696    0.7455    0.0000 O   0  0  0  0  0  0  0  0  0  0  0  0
   -1.6321   -1.3979    0.0000 O   0  0  0  0  0  0  0  0  0  0  0  0
    5.6751    0.0000    0.0000 O   0  0  0  0  0  0  0  0  0  0  0  0
  1  2  1  0  0  0  0
  2  3  1  0  0  0  0
  3  4  1  0  0  0  0
  4  5  1  0  0  0  0
  5  6  1  0  0  0  0
  6  7  1  0  0  0  0
  2  7  1  0  0  0  0
  6  8  1  0  0  0  0
  8  9  1  0  0  0  0
  9 10  1  0  0  0  0
 10 11  1  0  0  0  0
 11 12  1  0  0  0  0
 10 13  1  0  0  0  0
  9 14  1  0  0  0  0
 14 15  1  0  0  0  0
 15 16  1  0  0  0  0
 16 17  2  0  0  0  0
 15 18  1  0  0  0  0
 14 19  1  0  0  0  0
  5 20  1  0  0  0  0
  4 21  1  0  0  0  0
  3 22  1  0  0  0  0
  1 23  1  0  0  0  0
M  END
>  <Name>
D-(+)-Maltose monohydrate

>  <CAS>
6363-53-7

>  <Formula>
C12H22011.H2O

>  <MolWt>
360.31 

>  <Bioactivity>
A dextrodisaccharide from malt and starch. It is used as a sweetening agent and fermentable intermediate in brewing. (Grant and Hackh's Chemical Dictionary, 5th ed) 

>  <Pathways>
Others

>  <Target>
Others

>  <Receptor>
Others

>  <Reference>
1. Sugawara K, et al. Anal Chim Acta. 2014 Mar 3;814:55-62. 

$$$$
