100952340
  -OEChem-08232501032D

 12 15  0     0  0  0  0  0  0999 V2000
    2.8732   -1.8753    0.0000 N   0  0  0  0  0  0  0  0  0  0  0  0
    2.0000   -1.3711    0.0000 N   0  0  0  0  0  0  0  0  0  0  0  0
    2.8732    1.8753    0.0000 N   0  0  0  0  0  0  0  0  0  0  0  0
    2.0000    1.3711    0.0000 N   0  0  0  0  0  0  0  0  0  0  0  0
    5.2481    0.5041    0.0000 N   0  0  0  0  0  0  0  0  0  0  0  0
    5.2481   -0.5041    0.0000 N   0  0  0  0  0  0  0  0  0  0  0  0
    2.5077   -0.5000    0.0000 C   0  0  0  0  0  0  0  0  0  0  0  0
    3.3738   -1.0000    0.0000 C   0  0  0  0  0  0  0  0  0  0  0  0
    2.5077    0.5000    0.0000 C   0  0  0  0  0  0  0  0  0  0  0  0
    4.2398   -0.5000    0.0000 C   0  0  0  0  0  0  0  0  0  0  0  0
    3.3738    1.0000    0.0000 C   0  0  0  0  0  0  0  0  0  0  0  0
    4.2398    0.5000    0.0000 C   0  0  0  0  0  0  0  0  0  0  0  0
  1  2  2  0  0  0  0
  1  8  1  0  0  0  0
  2  7  1  0  0  0  0
  3  4  2  0  0  0  0
  3 11  1  0  0  0  0
  4  9  1  0  0  0  0
  5  6  2  0  0  0  0
  5 12  1  0  0  0  0
  6 10  1  0  0  0  0
  7  8  2  0  0  0  0
  7  9  1  0  0  0  0
  8 10  1  0  0  0  0
  9 11  2  0  0  0  0
 10 12  2  0  0  0  0
 11 12  1  0  0  0  0
M  END
> <PUBCHEM_COMPOUND_CID>
100952340

> <PUBCHEM_COMPOUND_CANONICALIZED>
1

> <PUBCHEM_CACTVS_COMPLEXITY>
251

> <PUBCHEM_CACTVS_HBOND_ACCEPTOR>
6

> <PUBCHEM_CACTVS_HBOND_DONOR>
0

> <PUBCHEM_CACTVS_ROTATABLE_BOND>
0

> <PUBCHEM_CACTVS_SUBSKEYS>
AAADcQBjgAAAAAAAAAAAAAAAAABAgAAAAAAwAAAAAAAQIAABAAAADAAIAAAACAgBEAAAwIAAAACCAARAQACCAAAgAAAAiAAAVIgIYCKA0NGAIABggAAIyAcQAAAAAACAAAQAACAAAQAACAAAQAAAAAAAAA==

> <PUBCHEM_IUPAC_OPENEYE_NAME>
3,4,7,8,11,12-hexazatetracyclo[8.2.0.02,5.06,9]dodeca-1(10),2(5),3,6(9),7,11-hexaene

> <PUBCHEM_IUPAC_CAS_NAME>
3,4,7,8,11,12-hexazatetracyclo[8.2.0.02,5.06,9]dodeca-1(10),2(5),3,6(9),7,11-hexaene

> <PUBCHEM_IUPAC_NAME_MARKUP>
3,4,7,8,11,12-hexazatetracyclo[8.2.0.0<SUP>2,5</SUP>.0<SUP>6,9</SUP>]dodeca-1(10),2(5),3,6(9),7,11-hexaene

> <PUBCHEM_IUPAC_NAME>
3,4,7,8,11,12-hexazatetracyclo[8.2.0.02,5.06,9]dodeca-1(10),2(5),3,6(9),7,11-hexaene

> <PUBCHEM_IUPAC_SYSTEMATIC_NAME>
3,4,7,8,11,12-hexazatetracyclo[8.2.0.02,5.06,9]dodeca-1(10),2(5),3,6(9),7,11-hexaene

> <PUBCHEM_IUPAC_TRADITIONAL_NAME>
3,4,7,8,11,12-hexazatetracyclo[8.2.0.02,5.06,9]dodeca-1(10),2(5),3,6(9),7,11-hexaene

> <PUBCHEM_IUPAC_INCHI>
InChI=1S/C6N6/c7-1-2(8-7)4-6(12-11-4)5-3(1)9-10-5

> <PUBCHEM_IUPAC_INCHIKEY>
RKTXMCBVFOYEAU-UHFFFAOYSA-N

> <PUBCHEM_XLOGP3_AA>
0.2

> <PUBCHEM_EXACT_MASS>
156.01844403

> <PUBCHEM_MOLECULAR_FORMULA>
C6N6

> <PUBCHEM_MOLECULAR_WEIGHT>
156.10

> <PUBCHEM_SMILES>
C12=C(C3=C(C4=C1N=N4)N=N3)N=N2

> <PUBCHEM_CONNECTIVITY_SMILES>
C12=C(C3=C(C4=C1N=N4)N=N3)N=N2

> <PUBCHEM_CACTVS_TPSA>
74.2

> <PUBCHEM_MONOISOTOPIC_WEIGHT>
156.01844403

> <PUBCHEM_TOTAL_CHARGE>
0

> <PUBCHEM_HEAVY_ATOM_COUNT>
12

> <PUBCHEM_ATOM_DEF_STEREO_COUNT>
0

> <PUBCHEM_ATOM_UDEF_STEREO_COUNT>
0

> <PUBCHEM_BOND_DEF_STEREO_COUNT>
0

> <PUBCHEM_BOND_UDEF_STEREO_COUNT>
0

> <PUBCHEM_ISOTOPIC_ATOM_COUNT>
0

> <PUBCHEM_COMPONENT_COUNT>
1

> <PUBCHEM_CACTVS_TAUTO_COUNT>
-1

> <PUBCHEM_COORDINATE_TYPE>
1
5
255

> <PUBCHEM_BONDANNOTATIONS>
1  2  8
1  8  8
10  12  8
11  12  8
2  7  8
3  11  8
3  4  8
4  9  8
5  12  8
5  6  8
6  10  8
7  8  8
7  9  8
8  10  8
9  11  8

$$$$
