105035
  -OEChem-03222503373D

  9  8  0     0  0  0  0  0  0999 V2000
    1.2627   -1.2468   -0.0001 O   0  0  0  0  0  0  0  0  0  0  0  0
   -2.4910    0.2595   -0.0001 O   0  0  0  0  0  0  0  0  0  0  0  0
   -0.2858    0.4860    0.0003 N   0  0  0  0  0  0  0  0  0  0  0  0
    1.9630    0.9387   -0.0002 N   0  0  0  0  0  0  0  0  0  0  0  0
   -1.4410   -0.3908   -0.0001 N   0  0  0  0  0  0  0  0  0  0  0  0
    0.9920   -0.0467    0.0002 C   0  0  0  0  0  0  0  0  0  0  0  0
   -0.4710    1.4829    0.0005 H   0  0  0  0  0  0  0  0  0  0  0  0
    2.9501    0.7045   -0.0005 H   0  0  0  0  0  0  0  0  0  0  0  0
    1.7201    1.9236    0.0000 H   0  0  0  0  0  0  0  0  0  0  0  0
  1  6  2  0  0  0  0
  2  5  2  0  0  0  0
  3  5  1  0  0  0  0
  3  6  1  0  0  0  0
  3  7  1  0  0  0  0
  4  6  1  0  0  0  0
  4  8  1  0  0  0  0
  4  9  1  0  0  0  0
M  END
> <PUBCHEM_COMPOUND_CID>
105035

> <PUBCHEM_CONFORMER_RMSD>
0.4

> <PUBCHEM_CONFORMER_DIVERSEORDER>
1
2

> <PUBCHEM_MMFF94_PARTIAL_CHARGES>
9
1 -0.57
2 -0.16
3 -0.25
4 -0.8
5 -0.02
6 0.69
7 0.37
8 0.37
9 0.37

> <PUBCHEM_EFFECTIVE_ROTOR_COUNT>
2

> <PUBCHEM_PHARMACOPHORE_FEATURES>
3
1 1 acceptor
1 3 donor
1 4 donor

> <PUBCHEM_HEAVY_ATOM_COUNT>
6

> <PUBCHEM_ATOM_DEF_STEREO_COUNT>
0

> <PUBCHEM_ATOM_UDEF_STEREO_COUNT>
0

> <PUBCHEM_BOND_DEF_STEREO_COUNT>
0

> <PUBCHEM_BOND_UDEF_STEREO_COUNT>
0

> <PUBCHEM_ISOTOPIC_ATOM_COUNT>
0

> <PUBCHEM_COMPONENT_COUNT>
1

> <PUBCHEM_CACTVS_TAUTO_COUNT>
5

> <PUBCHEM_CONFORMER_ID>
00019A4B00000001

> <PUBCHEM_MMFF94_ENERGY>
5.775

> <PUBCHEM_FEATURE_SELFOVERLAP>
15.275

> <PUBCHEM_SHAPE_FINGERPRINT>
139733 1 9222929483445818402
14390081 3 18201435917245548857
20096714 4 18341612680440228832
21040471 1 18266740366826436038
29004967 10 18187090558925406209
5460574 1 9223237342723061537

> <PUBCHEM_SHAPE_MULTIPOLES>
96.8
2.89
0.98
0.53
1.46
0.17
0
-0.4
0
-0.49
0
-0.02
0
0

> <PUBCHEM_SHAPE_SELFOVERLAP>
174.301

> <PUBCHEM_SHAPE_VOLUME>
62.1

> <PUBCHEM_COORDINATE_TYPE>
2
5
10

$$$$
